
 OpenBabel11242516263D

 15 14  0  0  0  0  0  0  0  0999 V2000
   -1.0753    3.1611    0.6443 Ti  0  0  0  0  0  0  0  0  0  0  0  0
   -0.3528    2.6522    2.9988 Ne  0  0  0  0  0  0  0  0  0  0  0  0
   -2.9850    2.9409    1.3012 Ar  0  0  0  0  0  0  0  0  0  0  0  0
   -1.0763    3.2631   -1.1033 Kr  0  0  0  0  0  0  0  0  0  0  0  0
   -0.7420    0.4222    0.4336 Rn  0  0  0  0  0  0  0  0  0  0  0  0
    1.5994    3.3056    0.8449 Xe  0  0  0  0  0  0  0  0  0  0  0  0
   -0.6894    5.0603    1.2124 N   0  0  0  0  0  0  0  0  0  0  0  0
    0.0682    5.8820    0.2543 C   0  0  0  0  0  0  0  0  0  0  0  0
    0.6558    1.6590    1.9467 C   0  0  0  0  0  0  0  0  0  0  0  0
    0.9177    6.3704    0.7727 H   0  0  0  0  0  0  0  0  0  0  0  0
    0.4457    5.3281   -0.6221 H   0  0  0  0  0  0  0  0  0  0  0  0
   -0.6029    6.6748   -0.1358 H   0  0  0  0  0  0  0  0  0  0  0  0
    1.4738    1.0037    1.4083 H   0  0  0  0  0  0  0  0  0  0  0  0
    0.2128    0.8503    2.6860 H   0  0  0  0  0  0  0  0  0  0  0  0
    1.4561    1.7490    2.7825 H   0  0  0  0  0  0  0  0  0  0  0  0
  1  2  1  0  0  0  0
  1  5  1  0  0  0  0
  1  4  3  0  0  0  0
  1  3  1  0  0  0  0
  1  6  1  0  0  0  0
  1  7  1  0  0  0  0
  7  8  1  0  0  0  0
  7  9  1  0  0  0  0
  8 10  1  0  0  0  0
  8 11  1  0  0  0  0
  8 12  1  0  0  0  0
  9 13  1  0  0  0  0
  9 14  1  0  0  0  0
  9 15  1  0  0  0  0
M  END
>  <fileName>
/Users/dawn_mao/Desktop/PhD_research/chpt4_Ti_ureate/TM_catalyst_framework/src/TM_catalyst_framework/template/octahedral.sdf

$$$$
