
  Avogadro11192510303D

  7  6  0  0  0  0  0  0  0  0999 V2000
   -0.7217    2.9637    0.9057 Ti  0  0  0  0  0  0  0  0  0  0  0  0
   -0.6894    5.0603    1.2124 He  0  0  0  0  0  0  0  0  0  0  0  0
   -0.3528    2.6522    2.9988 Ne  0  0  0  0  0  0  0  0  0  0  0  0
   -2.9850    2.9409    1.3012 Ar  0  0  0  0  0  0  0  0  0  0  0  0
   -1.0763    3.2631   -1.1033 Kr  0  0  0  0  0  0  0  0  0  0  0  0
   -0.7420    0.4222    0.4336 Rn  0  0  0  0  0  0  0  0  0  0  0  0
    1.5994    3.3056    0.8449 Xe  0  0  0  0  0  0  0  0  0  0  0  0
  1  3  1  0  0  0  0
  1  6  1  0  0  0  0
  1  5  3  0  0  0  0
  1  2  1  0  0  0  0
  1  4  1  0  0  0  0
  1  7  1  0  0  0  0
M  END
> <fileName>
/Users/dawn_mao/Desktop/PhD_research/chpt4_Ti_ureate/TM_catalyst_framework/src/TM_catalyst_framework/template/octahedral.sdf

$$$$
