
 OpenBabel12152510243D

  6  5  0  0  0  0  0  0  0  0999 V2000
    0.0000    0.0000    0.0000 Ti  0  0  0  0  0  0  0  0  0  0  0  0
    0.0000    0.0000    2.0000 He  0  0  0  0  0  0  0  0  0  0  0  0
    2.0000    0.0000    0.0000 Ne  0  0  0  0  0  0  0  0  0  0  0  0
    0.0000   -2.0000    0.0000 Ar  0  0  0  0  0  0  0  0  0  0  0  0
   -2.0000    0.0000    0.0000 Kr  0  0  0  0  0  0  0  0  0  0  0  0
    0.0000    2.0000    0.0000 Xe  0  0  0  0  0  0  0  0  0  0  0  0
  1  2  1  0  0  0  0
  1  3  1  0  0  0  0
  1  4  1  0  0  0  0
  1  5  1  0  0  0  0
  1  6  1  0  0  0  0
M  END
$$$$
