
 OpenBabel11192510353D

  6  5  0  0  0  0  0  0  0  0999 V2000
   -0.7217    2.9637    0.9057 Ti  0  0  0  0  0  0  0  0  0  0  0  0
   -0.6894    5.0603    1.2124 He  0  0  0  0  0  0  0  0  0  0  0  0
   -0.3356    2.6945    2.8734 Ne  0  0  0  0  0  0  0  0  0  0  0  0
   -2.4898    3.1909   -0.1682 Ar  0  0  0  0  0  0  0  0  0  0  0  0
    1.1772    3.2395   -0.7432 Kr  0  5  0  0  0  0  0  0  0  0  0  0
   -0.8087    0.5085    0.5464 Xe  0  3  0  0  0  0  0  0  0  0  0  0
  1  3  1  0  0  0  0
  1  6  1  0  0  0  0
  1  5  1  0  0  0  0
  1  2  1  0  0  0  0
  1  4  1  0  0  0  0
M  CHG  2   5  -1   6   1
M  END
$$$$
