
 OpenBabel11192510363D

  5  4  0  0  0  0  0  0  0  0999 V2000
   -0.6299    3.4548    0.8650 Ti  0  0  1  0  0  0  0  0  0  0  0  0
   -0.6650    5.5264    1.3090 He  0  0  0  0  0  0  0  0  0  0  0  0
   -0.3706    2.3460    2.6862 Ne  0  0  0  0  0  0  0  0  0  0  0  0
   -2.6099    2.8471   -0.1296 Ar  0  0  0  0  0  0  0  0  0  0  0  0
    1.2161    2.9746   -0.6504 Kr  0  5  0  0  0  0  0  0  0  0  0  0
  1  3  1  1  0  0  0
  1  4  1  0  0  0  0
  1  5  1  0  0  0  0
  1  2  1  0  0  0  0
M  CHG  1   5  -1
M  END
$$$$
