
 OpenBabel12152510243D

  5  4  0  0  0  0  0  0  0  0999 V2000
    0.0000    0.0000    0.0000 Ti  0  0  1  0  0  0  0  0  0  0  0  0
    1.1547    1.1547    1.1547 He  0  0  0  0  0  0  0  0  0  0  0  0
    1.1547   -1.1547   -1.1547 Ne  0  0  0  0  0  0  0  0  0  0  0  0
   -1.1547   -1.1547    1.1547 Ar  0  0  0  0  0  0  0  0  0  0  0  0
   -1.1547    1.1547   -1.1547 Kr  0  0  0  0  0  0  0  0  0  0  0  0
  1  2  1  1  0  0  0
  1  3  1  0  0  0  0
  1  4  1  0  0  0  0
  1  5  1  0  0  0  0
M  END
$$$$
