XYZ file generated by Avogadro.
  Avogadro11102501053D

 23 22  0  0  0  0  0  0  0  0999 V2000
   -1.2084    2.4239    0.9866 Ti  0  0  0  0  0  0  0  0  0  0  0  0
   -0.9391    4.4609    1.3309 N   0  0  0  0  0  0  0  0  0  0  0  0
   -2.1237    5.2347    1.6914 C   0  0  0  0  0  0  0  0  0  0  0  0
    0.2336    4.7911    2.1314 C   0  0  0  0  0  0  0  0  0  0  0  0
   -0.6301    2.6673   -0.9958 N   0  0  0  0  0  0  0  0  0  0  0  0
    0.7889    2.9570   -1.1696 C   0  0  0  0  0  0  0  0  0  0  0  0
   -1.4835    3.6269   -1.7036 C   0  0  0  0  0  0  0  0  0  0  0  0
    0.9198    1.8283    1.7857 Cl  0  0  0  0  0  0  0  0  0  0  0  0
   -2.5453    3.3326   -1.6630 H   0  0  0  0  0  0  0  0  0  0  0  0
   -1.3875    4.6494   -1.3066 H   0  0  0  0  0  0  0  0  0  0  0  0
   -3.1279    2.5374    0.6102 F   0  0  0  0  0  0  0  0  0  0  0  0
   -1.9237    6.3235    1.6666 H   0  0  0  0  0  0  0  0  0  0  0  0
    1.0560    2.9980   -2.2420 H   0  0  0  0  0  0  0  0  0  0  0  0
   -1.2323    3.6657   -2.7744 H   0  0  0  0  0  0  0  0  0  0  0  0
    1.0638    3.9104   -0.6835 H   0  0  0  0  0  0  0  0  0  0  0  0
    1.3854    2.1282   -0.7473 H   0  0  0  0  0  0  0  0  0  0  0  0
    1.1388    4.3400    1.6868 H   0  0  0  0  0  0  0  0  0  0  0  0
    0.4369    5.8789    2.1252 H   0  0  0  0  0  0  0  0  0  0  0  0
    0.1233    4.4220    3.1676 H   0  0  0  0  0  0  0  0  0  0  0  0
   -2.9268    5.0565    0.9549 H   0  0  0  0  0  0  0  0  0  0  0  0
   -2.4876    4.9654    2.6978 H   0  0  0  0  0  0  0  0  0  0  0  0
   -1.0179    0.0599    0.6517 I   0  0  0  0  0  0  0  0  0  0  0  0
   -2.2728    2.0221    3.1835 Br  0  0  0  0  0  0  0  0  0  0  0  0
  1 11  1  0  0  0  0
  1  8  1  0  0  0  0
  1  5  1  0  0  0  0
  1  2  1  0  0  0  0
  1 22  1  0  0  0  0
  1 23  1  0  0  0  0
  2  3  1  0  0  0  0
  2  4  1  0  0  0  0
  3 20  1  0  0  0  0
  3 12  1  0  0  0  0
  3 21  1  0  0  0  0
  4 17  1  0  0  0  0
  4 18  1  0  0  0  0
  4 19  1  0  0  0  0
  5  7  1  0  0  0  0
  5  6  1  0  0  0  0
  6 15  1  0  0  0  0
  6 16  1  0  0  0  0
  6 13  1  0  0  0  0
  7  9  1  0  0  0  0
  7 10  1  0  0  0  0
  7 14  1  0  0  0  0
M  END
> <fileName>
/Users/dawn_mao/Desktop/PhD_research/chpt4_Ti_ureate/TM_catalyst_framework/src/TM_catalyst_framework/template/u2_d2d2_iso5.sdf

> <name>
XYZ file generated by Avogadro.

$$$$
