XYZ file generated by Avogadro.
 OpenBabel11102520473D

 22 21  0  0  0  0  0  0  0  0999 V2000
   -0.7075    2.9179    1.0447 Ti  0  0  0  0  0  0  0  0  0  0  0  0
   -0.6481    4.9512    1.3624 N   0  0  0  0  0  0  0  0  0  0  0  0
   -1.9453    5.3997    1.8527 C   0  0  0  0  0  0  0  0  0  0  0  0
    0.4600    5.2521    2.2610 C   0  0  0  0  0  0  0  0  0  0  0  0
   -0.5350    2.7636   -1.0084 N   0  0  0  0  0  0  0  0  0  0  0  0
    0.7472    3.3534   -1.3898 C   0  0  0  0  0  0  0  0  0  0  0  0
   -1.6543    3.4544   -1.6471 C   0  0  0  0  0  0  0  0  0  0  0  0
   -0.5647    0.2740    0.3439 Cl  0  0  0  0  0  0  0  0  0  0  0  0
   -2.6003    2.9272   -1.4198 H   0  0  0  0  0  0  0  0  0  0  0  0
   -1.7472    4.5003   -1.2867 H   0  0  0  0  0  0  0  0  0  0  0  0
    0.1292    2.3649    3.1904 F   0  0  0  0  0  0  0  0  0  0  0  0
   -1.9655    6.5028    1.9811 H   0  0  0  0  0  0  0  0  0  0  0  0
    0.9062    3.3118   -2.4886 H   0  0  0  0  0  0  0  0  0  0  0  0
   -1.5668    3.4432   -2.7549 H   0  0  0  0  0  0  0  0  0  0  0  0
    0.8344    4.4029   -1.0358 H   0  0  0  0  0  0  0  0  0  0  0  0
    1.5736    2.7720   -0.9359 H   0  0  0  0  0  0  0  0  0  0  0  0
    1.3962    4.8639    1.8101 H   0  0  0  0  0  0  0  0  0  0  0  0
    0.5819    6.3484    2.3891 H   0  0  0  0  0  0  0  0  0  0  0  0
    0.3297    4.7678    3.2517 H   0  0  0  0  0  0  0  0  0  0  0  0
   -2.7162    5.1398    1.0990 H   0  0  0  0  0  0  0  0  0  0  0  0
   -2.2153    4.8965    2.8047 H   0  0  0  0  0  0  0  0  0  0  0  0
   -2.9992    2.7319    1.4686 Br  0  0  0  0  0  0  0  0  0  0  0  0
  1 11  1  0  0  0  0
  1  8  1  0  0  0  0
  1  5  1  0  0  0  0
  1  2  1  0  0  0  0
  1 22  1  0  0  0  0
  2  3  1  0  0  0  0
  2  4  1  0  0  0  0
  3 20  1  0  0  0  0
  3 12  1  0  0  0  0
  3 21  1  0  0  0  0
  4 17  1  0  0  0  0
  4 18  1  0  0  0  0
  4 19  1  0  0  0  0
  5  7  1  0  0  0  0
  5  6  1  0  0  0  0
  6 15  1  0  0  0  0
  6 16  1  0  0  0  0
  6 13  1  0  0  0  0
  7  9  1  0  0  0  0
  7 10  1  0  0  0  0
  7 14  1  0  0  0  0
M  END
