
 OpenBabel11102501043D

 23 22  0  0  0  0  0  0  0  0999 V2000
   -0.7911    2.5676    0.6682 Ti  0  0  0  0  0  0  0  0  0  0  0  0
   -0.7881    4.5869    1.1709 N   0  0  0  0  0  0  0  0  0  0  0  0
   -2.0677    5.0958    1.6585 C   0  0  0  0  0  0  0  0  0  0  0  0
    0.3422    4.9761    2.0091 C   0  0  0  0  0  0  0  0  0  0  0  0
   -0.6034    3.0339   -1.3456 N   0  0  0  0  0  0  0  0  0  0  0  0
    0.7672    3.4535   -1.6349 C   0  0  0  0  0  0  0  0  0  0  0  0
   -1.5846    3.9865   -1.8676 C   0  0  0  0  0  0  0  0  0  0  0  0
   -0.9796    1.9455    2.8843 Cl  0  0  0  0  0  0  0  0  0  0  0  0
   -2.6126    3.6027   -1.7349 H   0  0  0  0  0  0  0  0  0  0  0  0
   -1.5065    4.9812   -1.3854 H   0  0  0  0  0  0  0  0  0  0  0  0
   -1.0105    0.7696    0.1651 F   0  0  0  0  0  0  0  0  0  0  0  0
   -2.0355    6.1916    1.8479 H   0  0  0  0  0  0  0  0  0  0  0  0
    0.9178    3.6879   -2.7094 H   0  0  0  0  0  0  0  0  0  0  0  0
   -1.4719    4.1185   -2.9644 H   0  0  0  0  0  0  0  0  0  0  0  0
    1.0559    4.3295   -1.0195 H   0  0  0  0  0  0  0  0  0  0  0  0
    1.4575    2.6168   -1.4192 H   0  0  0  0  0  0  0  0  0  0  0  0
    1.2827    4.6373    1.5317 H   0  0  0  0  0  0  0  0  0  0  0  0
    0.4218    6.0817    2.1010 H   0  0  0  0  0  0  0  0  0  0  0  0
    0.2793    4.5325    3.0254 H   0  0  0  0  0  0  0  0  0  0  0  0
   -2.8389    4.9540    0.8751 H   0  0  0  0  0  0  0  0  0  0  0  0
   -2.3887    4.5679    2.5816 H   0  0  0  0  0  0  0  0  0  0  0  0
    1.4864    1.5577    1.4046 I   0  0  0  0  0  0  0  0  0  0  0  0
   -3.2198    2.0589    0.5569 Br  0  0  0  0  0  0  0  0  0  0  0  0
  1 11  1  0  0  0  0
  1  8  1  0  0  0  0
  1  5  1  0  0  0  0
  1  2  1  0  0  0  0
  1 22  1  0  0  0  0
  1 23  1  0  0  0  0
  2  3  1  0  0  0  0
  2  4  1  0  0  0  0
  3 20  1  0  0  0  0
  3 12  1  0  0  0  0
  3 21  1  0  0  0  0
  4 17  1  0  0  0  0
  4 18  1  0  0  0  0
  4 19  1  0  0  0  0
  5  7  1  0  0  0  0
  5  6  1  0  0  0  0
  6 15  1  0  0  0  0
  6 16  1  0  0  0  0
  6 13  1  0  0  0  0
  7  9  1  0  0  0  0
  7 10  1  0  0  0  0
  7 14  1  0  0  0  0
M  END
$$$$
