
 OpenBabel11132515593D

  7  6  0  0  0  0  0  0  0  0999 V2000
    0.3563    3.1567    0.9703 Ti  0  0  0  0  0  0  0  0  0  0  0  0
   -0.5908    4.9546    1.4888 He  0  0  0  0  0  0  0  0  0  0  0  0
    2.2080    4.4000    0.3317 Ar  0  0  0  0  0  0  0  0  0  0  0  0
   -0.3845    3.4243   -0.9007 Ne  0  0  0  0  0  0  0  0  0  0  0  0
    1.3370    1.3718    0.4736 He  0  0  0  0  0  0  0  0  0  0  0  0
    1.3308    2.8659    3.0920 Cl  0  0  0  0  0  0  0  0  0  0  0  0
   -1.4859    1.8617    1.3759 F   0  0  0  0  0  0  0  0  0  0  0  0
  1  7  1  0  0  0  0
  1  6  1  0  0  0  0
  1  5  1  0  0  0  0
  1  2  1  0  0  0  0
  1  3  1  0  0  0  0
  1  4  1  0  0  0  0
M  END
$$$$
