XYZ file generated by Avogadro.
  Avogadro11132516003D

  7  6  0  0  0  0  0  0  0  0999 V2000
   -0.8944    2.5879    0.9935 Ti  0  0  0  0  0  0  0  0  0  0  0  0
   -0.9412    4.6579    1.2826 He  0  0  0  0  0  0  0  0  0  0  0  0
   -2.8667    2.2495    0.6526 Ne  0  0  0  0  0  0  0  0  0  0  0  0
   -0.4141    0.3241    0.8302 Ar  0  0  0  0  0  0  0  0  0  0  0  0
   -0.3154    2.8307   -0.9999 He  0  0  0  0  0  0  0  0  0  0  0  0
   -1.6349    2.2744    2.7865 F   0  0  0  0  0  0  0  0  0  0  0  0
    0.9607    2.3902    1.6696 Cl  0  0  0  0  0  0  0  0  0  0  0  0
  1  6  1  0  0  0  0
  1  7  1  0  0  0  0
  1  5  1  0  0  0  0
  1  2  1  0  0  0  0
  1  4  1  0  0  0  0
  1  3  1  0  0  0  0
M  END
> <fileName>
/Users/dawn_mao/Desktop/PhD_research/chpt4_Ti_ureate/TM_catalyst_framework/src/TM_catalyst_framework/template/u2_d2d2_iso3.sdf

> <name>
XYZ file generated by Avogadro.

$$$$
