
 OpenBabel11132516033D

  7  6  0  0  0  0  0  0  0  0999 V2000
   -0.8216    2.4898    0.6977 Ti  0  0  0  0  0  0  0  0  0  0  0  0
   -0.9498    4.5141    1.1712 He  0  0  0  0  0  0  0  0  0  0  0  0
   -2.7956    2.1007    0.4279 Ne  0  0  0  0  0  0  0  0  0  0  0  0
    1.2292    1.8110    1.5438 Ar  0  0  0  0  0  0  0  0  0  0  0  0
   -0.4562    2.9540   -1.2993 He  0  0  0  0  0  0  0  0  0  0  0  0
   -1.2166    2.0278    2.5173 F   0  0  0  0  0  0  0  0  0  0  0  0
   -0.6771    0.2386    0.1203 Cl  0  0  0  0  0  0  0  0  0  0  0  0
  1  6  1  0  0  0  0
  1  7  1  0  0  0  0
  1  5  1  0  0  0  0
  1  2  1  0  0  0  0
  1  4  1  0  0  0  0
  1  3  1  0  0  0  0
M  END
$$$$
