XYZ file generated by Avogadro.
  Avogadro11102501063D

 23 22  0  0  0  0  0  0  0  0999 V2000
   -0.8944    2.5879    0.9935 Ti  0  0  0  0  0  0  0  0  0  0  0  0
   -0.9412    4.6579    1.2826 N   0  0  0  0  0  0  0  0  0  0  0  0
   -2.2138    5.2311    1.7173 C   0  0  0  0  0  0  0  0  0  0  0  0
    0.1789    5.1447    2.0846 C   0  0  0  0  0  0  0  0  0  0  0  0
   -0.3154    2.8307   -0.9999 N   0  0  0  0  0  0  0  0  0  0  0  0
    1.1101    3.0931   -1.2014 C   0  0  0  0  0  0  0  0  0  0  0  0
   -1.1327    3.8025   -1.7283 C   0  0  0  0  0  0  0  0  0  0  0  0
    0.9607    2.3902    1.6696 Cl  0  0  0  0  0  0  0  0  0  0  0  0
   -2.2051    3.5483   -1.6558 H   0  0  0  0  0  0  0  0  0  0  0  0
   -0.9931    4.8389   -1.3552 H   0  0  0  0  0  0  0  0  0  0  0  0
   -1.6349    2.2744    2.7865 F   0  0  0  0  0  0  0  0  0  0  0  0
   -2.1814    6.3416    1.7360 H   0  0  0  0  0  0  0  0  0  0  0  0
    1.3757    3.1591   -2.2793 H   0  0  0  0  0  0  0  0  0  0  0  0
   -0.9102    3.7853   -2.8170 H   0  0  0  0  0  0  0  0  0  0  0  0
    1.4327    4.0195   -0.6814 H   0  0  0  0  0  0  0  0  0  0  0  0
    1.7129    2.2406   -0.8368 H   0  0  0  0  0  0  0  0  0  0  0  0
    1.1326    4.8957    1.5801 H   0  0  0  0  0  0  0  0  0  0  0  0
    0.1880    6.2528    2.1676 H   0  0  0  0  0  0  0  0  0  0  0  0
    0.1682    4.6903    3.0979 H   0  0  0  0  0  0  0  0  0  0  0  0
   -3.0074    4.9952    0.9830 H   0  0  0  0  0  0  0  0  0  0  0  0
   -2.5097    4.8692    2.7244 H   0  0  0  0  0  0  0  0  0  0  0  0
   -0.3927    0.2234    0.8229 I   0  0  0  0  0  0  0  0  0  0  0  0
   -3.2966    2.1757    0.5783 Br  0  0  0  0  0  0  0  0  0  0  0  0
  1 11  1  0  0  0  0
  1  8  1  0  0  0  0
  1  5  1  0  0  0  0
  1  2  1  0  0  0  0
  1 22  1  0  0  0  0
  1 23  1  0  0  0  0
  2  3  1  0  0  0  0
  2  4  1  0  0  0  0
  3 20  1  0  0  0  0
  3 12  1  0  0  0  0
  3 21  1  0  0  0  0
  4 17  1  0  0  0  0
  4 18  1  0  0  0  0
  4 19  1  0  0  0  0
  5  7  1  0  0  0  0
  5  6  1  0  0  0  0
  6 15  1  0  0  0  0
  6 16  1  0  0  0  0
  6 13  1  0  0  0  0
  7  9  1  0  0  0  0
  7 10  1  0  0  0  0
  7 14  1  0  0  0  0
M  END
> <fileName>
/Users/dawn_mao/Desktop/PhD_research/chpt4_Ti_ureate/TM_catalyst_framework/src/TM_catalyst_framework/template/u2_d2d2_iso3.sdf

> <name>
XYZ file generated by Avogadro.

$$$$
