XYZ file generated by Avogadro.
  Avogadro11102501033D

 23 22  0  0  0  0  0  0  0  0999 V2000
   -0.8216    2.4898    0.6977 Ti  0  0  0  0  0  0  0  0  0  0  0  0
   -0.9498    4.5141    1.1712 N   0  0  0  0  0  0  0  0  0  0  0  0
   -2.2664    4.9685    1.6086 C   0  0  0  0  0  0  0  0  0  0  0  0
    0.1158    4.9246    2.0804 C   0  0  0  0  0  0  0  0  0  0  0  0
   -0.4562    2.9540   -1.2993 N   0  0  0  0  0  0  0  0  0  0  0  0
    0.9251    3.3967   -1.4757 C   0  0  0  0  0  0  0  0  0  0  0  0
   -1.4004    3.8861   -1.9146 C   0  0  0  0  0  0  0  0  0  0  0  0
   -0.6771    0.2386    0.1203 Cl  0  0  0  0  0  0  0  0  0  0  0  0
   -2.4280    3.4815   -1.8852 H   0  0  0  0  0  0  0  0  0  0  0  0
   -1.3928    4.8798   -1.4225 H   0  0  0  0  0  0  0  0  0  0  0  0
   -1.2166    2.0278    2.5173 F   0  0  0  0  0  0  0  0  0  0  0  0
   -2.2793    6.0588    1.8198 H   0  0  0  0  0  0  0  0  0  0  0  0
    1.1684    3.6094   -2.5388 H   0  0  0  0  0  0  0  0  0  0  0  0
   -1.1892    4.0243   -2.9970 H   0  0  0  0  0  0  0  0  0  0  0  0
    1.1383    4.2961   -0.8621 H   0  0  0  0  0  0  0  0  0  0  0  0
    1.6150    2.5838   -1.1813 H   0  0  0  0  0  0  0  0  0  0  0  0
    1.0976    4.7069    1.6169 H   0  0  0  0  0  0  0  0  0  0  0  0
    0.1138    6.0212    2.2562 H   0  0  0  0  0  0  0  0  0  0  0  0
    0.0441    4.3909    3.0509 H   0  0  0  0  0  0  0  0  0  0  0  0
   -2.9929    4.8381    0.7833 H   0  0  0  0  0  0  0  0  0  0  0  0
   -2.6071    4.4097    2.5041 H   0  0  0  0  0  0  0  0  0  0  0  0
    1.5407    1.7079    1.6723 I   0  0  0  0  0  0  0  0  0  0  0  0
   -3.2727    2.0066    0.3627 Br  0  0  0  0  0  0  0  0  0  0  0  0
  1 11  1  0  0  0  0
  1  8  1  0  0  0  0
  1  5  1  0  0  0  0
  1  2  1  0  0  0  0
  1 22  1  0  0  0  0
  1 23  1  0  0  0  0
  2  3  1  0  0  0  0
  2  4  1  0  0  0  0
  3 20  1  0  0  0  0
  3 12  1  0  0  0  0
  3 21  1  0  0  0  0
  4 17  1  0  0  0  0
  4 18  1  0  0  0  0
  4 19  1  0  0  0  0
  5  7  1  0  0  0  0
  5  6  1  0  0  0  0
  6 15  1  0  0  0  0
  6 16  1  0  0  0  0
  6 13  1  0  0  0  0
  7  9  1  0  0  0  0
  7 10  1  0  0  0  0
  7 14  1  0  0  0  0
M  END
> <fileName>
/Users/dawn_mao/Desktop/PhD_research/chpt4_Ti_ureate/TM_catalyst_framework/src/TM_catalyst_framework/template/u2_d2d2_iso7.sdf

> <name>
XYZ file generated by Avogadro.

$$$$
