XYZ file generated by Avogadro.
 OpenBabel11102520153D

 23 22  0  0  0  0  0  0  0  0999 V2000
    0.3563    3.1567    0.9703 Ti  0  0  0  0  0  0  0  0  0  0  0  0
   -0.5908    4.9546    1.4888 N   0  0  0  0  0  0  0  0  0  0  0  0
   -2.0544    4.9116    1.4775 C   0  0  0  0  0  0  0  0  0  0  0  0
   -0.1011    5.6544    2.6778 C   0  0  0  0  0  0  0  0  0  0  0  0
    1.3370    1.3718    0.4736 N   0  0  0  0  0  0  0  0  0  0  0  0
    0.7699    0.1688    1.0880 C   0  0  0  0  0  0  0  0  0  0  0  0
    1.6937    1.1331   -0.9256 C   0  0  0  0  0  0  0  0  0  0  0  0
    1.3308    2.8659    3.0920 Cl  0  0  0  0  0  0  0  0  0  0  0  0
    0.8085    0.8495   -1.5368 H   0  0  0  0  0  0  0  0  0  0  0  0
    2.1553    2.0357   -1.3723 H   0  0  0  0  0  0  0  0  0  0  0  0
   -1.4859    1.8617    1.3759 F   0  0  0  0  0  0  0  0  0  0  0  0
   -2.4926    5.9316    1.5300 H   0  0  0  0  0  0  0  0  0  0  0  0
    1.4674   -0.6953    1.0119 H   0  0  0  0  0  0  0  0  0  0  0  0
    2.4568    0.3285   -1.0132 H   0  0  0  0  0  0  0  0  0  0  0  0
    0.6095    0.3218    2.1733 H   0  0  0  0  0  0  0  0  0  0  0  0
   -0.2086   -0.1022    0.6334 H   0  0  0  0  0  0  0  0  0  0  0  0
    1.0020    5.7492    2.6507 H   0  0  0  0  0  0  0  0  0  0  0  0
   -0.4894    6.6937    2.7299 H   0  0  0  0  0  0  0  0  0  0  0  0
   -0.3903    5.1242    3.6105 H   0  0  0  0  0  0  0  0  0  0  0  0
   -2.4368    4.4826    0.5334 H   0  0  0  0  0  0  0  0  0  0  0  0
   -2.4556    4.3002    2.3125 H   0  0  0  0  0  0  0  0  0  0  0  0
    2.4589    4.5685    0.2452 I   0  0  0  0  0  0  0  0  0  0  0  0
   -0.5655    3.4897   -1.3579 Br  0  0  0  0  0  0  0  0  0  0  0  0
  1 11  1  0  0  0  0
  1  8  1  0  0  0  0
  1  5  1  0  0  0  0
  1  2  1  0  0  0  0
  1 22  1  0  0  0  0
  1 23  1  0  0  0  0
  2  3  1  0  0  0  0
  2  4  1  0  0  0  0
  3 20  1  0  0  0  0
  3 12  1  0  0  0  0
  3 21  1  0  0  0  0
  4 17  1  0  0  0  0
  4 18  1  0  0  0  0
  4 19  1  0  0  0  0
  5  7  1  0  0  0  0
  5  6  1  0  0  0  0
  6 15  1  0  0  0  0
  6 16  1  0  0  0  0
  6 13  1  0  0  0  0
  7  9  1  0  0  0  0
  7 10  1  0  0  0  0
  7 14  1  0  0  0  0
M  END
