
 OpenBabel11132514433D

  7  6  0  0  0  0  0  0  0  0999 V2000
    0.4129    3.1721    1.1112 Ti  0  0  0  0  0  0  0  0  0  0  0  0
   -0.4397    4.7194    1.5488 He  0  0  0  0  0  0  0  0  0  0  0  0
    1.2353    3.0829    3.2549 Ar  0  0  0  0  0  0  0  0  0  0  0  0
    2.3084    4.3564    0.4336 Cl  0  0  0  0  0  0  0  0  0  0  0  0
   -0.3558    3.2566   -0.8928 Ne  0  0  0  0  0  0  0  0  0  0  0  0
   -1.1455    2.1980    1.6682 F   0  0  0  0  0  0  0  0  0  0  0  0
    1.2280    1.6193    0.6245 He  0  0  0  0  0  0  0  0  0  0  0  0
  1  4  1  0  0  0  0
  1  6  1  0  0  0  0
  1  5  1  0  0  0  0
  1  2  1  0  0  0  0
  1  3  1  0  0  0  0
  1  7  1  0  0  0  0
M  END
$$$$
