XYZ file generated by Avogadro.
  Avogadro11062512293D

 29 28  0  0  0  0  0  0  0  0999 V2000
   -0.8142    3.0653    0.4192 Ti  0  0  0  0  0  0  0  0  0  0  0  0
   -0.4279    4.8467    1.3799 N   0  0  0  0  0  0  0  0  0  0  0  0
   -1.6337    5.2751    2.0785 C   0  0  0  0  0  0  0  0  0  0  0  0
    0.7210    4.6657    2.2603 C   0  0  0  0  0  0  0  0  0  0  0  0
   -0.2727    3.3818   -1.5447 N   0  0  0  0  0  0  0  0  0  0  0  0
    0.9492    4.1793   -1.5672 C   0  0  0  0  0  0  0  0  0  0  0  0
   -0.1769    2.1548   -2.3275 C   0  0  0  0  0  0  0  0  0  0  0  0
    0.2269    1.6150    1.4493 N   0  0  0  0  0  0  0  0  0  0  0  0
   -0.7199    0.9709    2.3532 C   0  0  0  0  0  0  0  0  0  0  0  0
    0.8942    0.6810    0.5540 C   0  0  0  0  0  0  0  0  0  0  0  0
   -2.7471    2.6749    0.7529 F   0  0  0  0  0  0  0  0  0  0  0  0
   -1.5333    0.4616    1.7940 H   0  0  0  0  0  0  0  0  0  0  0  0
   -0.2114    0.2467    3.0232 H   0  0  0  0  0  0  0  0  0  0  0  0
    1.4412   -0.1011    1.1214 H   0  0  0  0  0  0  0  0  0  0  0  0
   -1.1840    1.7497    2.9926 H   0  0  0  0  0  0  0  0  0  0  0  0
    0.1710    0.1983   -0.1359 H   0  0  0  0  0  0  0  0  0  0  0  0
    1.5768    4.3005    1.6561 H   0  0  0  0  0  0  0  0  0  0  0  0
    1.0236    5.6274    2.7266 H   0  0  0  0  0  0  0  0  0  0  0  0
    0.5168    3.9142    3.0520 H   0  0  0  0  0  0  0  0  0  0  0  0
   -2.4412    5.4208    1.3322 H   0  0  0  0  0  0  0  0  0  0  0  0
   -1.9718    4.5055    2.8043 H   0  0  0  0  0  0  0  0  0  0  0  0
   -1.4797    6.2468    2.5945 H   0  0  0  0  0  0  0  0  0  0  0  0
    0.7562    5.1530   -1.0734 H   0  0  0  0  0  0  0  0  0  0  0  0
    1.7626    3.6692   -1.0085 H   0  0  0  0  0  0  0  0  0  0  0  0
    1.2789    4.4036   -2.6043 H   0  0  0  0  0  0  0  0  0  0  0  0
   -1.0044    1.4730   -2.0524 H   0  0  0  0  0  0  0  0  0  0  0  0
   -0.2645    2.3947   -3.4078 H   0  0  0  0  0  0  0  0  0  0  0  0
    0.7729    1.6050   -2.1759 H   0  0  0  0  0  0  0  0  0  0  0  0
    1.6581    1.2361   -0.0252 H   0  0  0  0  0  0  0  0  0  0  0  0
  1 11  1  0  0  0  0
  1  8  1  0  0  0  0
  1  5  1  0  0  0  0
  1  2  1  0  0  0  0
  2  3  1  0  0  0  0
  2  4  1  0  0  0  0
  3 20  1  0  0  0  0
  3 22  1  0  0  0  0
  3 21  1  0  0  0  0
  4 17  1  0  0  0  0
  4 18  1  0  0  0  0
  4 19  1  0  0  0  0
  5  7  1  0  0  0  0
  5  6  1  0  0  0  0
  6 23  1  0  0  0  0
  6 24  1  0  0  0  0
  6 25  1  0  0  0  0
  7 26  1  0  0  0  0
  7 27  1  0  0  0  0
  7 28  1  0  0  0  0
  8  9  1  0  0  0  0
  8 10  1  0  0  0  0
  9 15  1  0  0  0  0
  9 12  1  0  0  0  0
  9 13  1  0  0  0  0
 10 14  1  0  0  0  0
 10 16  1  0  0  0  0
 10 29  1  0  0  0  0
M  END
> <fileName>
/Users/dawn_mao/Desktop/PhD_research/chpt4_Ti_ureate/TM_catalyst_framework/src/TM_catalyst_framework/metal_center_template/u1_d1.sdf

> <name>
XYZ file generated by Avogadro.

> <totalCharge>
0

> <totalSpinMultiplicity>
1

$$$$
