XYZ file generated by Avogadro.
  Avogadro11062515333D

 30 29  0  0  0  0  0  0  0  0999 V2000
   -0.6554    2.7972    0.7841 Ti  0  0  0  0  0  0  0  0  0  0  0  0
   -0.3011    4.7357    1.4605 N   0  0  0  0  0  0  0  0  0  0  0  0
   -1.4992    5.3704    2.0060 C   0  0  0  0  0  0  0  0  0  0  0  0
    0.8611    4.8891    2.3380 C   0  0  0  0  0  0  0  0  0  0  0  0
    0.3973    3.1327   -0.9783 N   0  0  0  0  0  0  0  0  0  0  0  0
    1.5727    3.9943   -0.9273 C   0  0  0  0  0  0  0  0  0  0  0  0
   -0.4626    3.4049   -2.1268 C   0  0  0  0  0  0  0  0  0  0  0  0
   -0.2845    0.7374    0.7250 N   0  0  0  0  0  0  0  0  0  0  0  0
   -1.1539   -0.0337    1.6193 C   0  0  0  0  0  0  0  0  0  0  0  0
   -0.3722    0.2151   -0.6411 C   0  0  0  0  0  0  0  0  0  0  0  0
   -0.4745    2.3728    3.4342 I   0  0  0  0  0  0  0  0  0  0  0  0
   -2.2227    0.2078    1.4541 H   0  0  0  0  0  0  0  0  0  0  0  0
   -1.0058   -1.1308    1.5221 H   0  0  0  0  0  0  0  0  0  0  0  0
   -0.1965   -0.8816   -0.6902 H   0  0  0  0  0  0  0  0  0  0  0  0
   -0.9015    0.1681    2.6772 H   0  0  0  0  0  0  0  0  0  0  0  0
   -1.3533    0.4556   -1.1018 H   0  0  0  0  0  0  0  0  0  0  0  0
    1.6990    4.2596    1.9844 H   0  0  0  0  0  0  0  0  0  0  0  0
    1.2049    5.9454    2.3440 H   0  0  0  0  0  0  0  0  0  0  0  0
    0.6572    4.5814    3.3854 H   0  0  0  0  0  0  0  0  0  0  0  0
   -2.2669    5.4477    1.2127 H   0  0  0  0  0  0  0  0  0  0  0  0
   -1.9145    4.7771    2.8477 H   0  0  0  0  0  0  0  0  0  0  0  0
   -1.3093    6.4113    2.3467 H   0  0  0  0  0  0  0  0  0  0  0  0
    1.2948    5.0482   -0.7081 H   0  0  0  0  0  0  0  0  0  0  0  0
    2.2595    3.6139   -0.1420 H   0  0  0  0  0  0  0  0  0  0  0  0
    2.1559    3.9617   -1.8755 H   0  0  0  0  0  0  0  0  0  0  0  0
   -1.3355    2.7268   -2.1083 H   0  0  0  0  0  0  0  0  0  0  0  0
   -0.8287    4.4542   -2.1303 H   0  0  0  0  0  0  0  0  0  0  0  0
    0.0666    3.1741   -3.0759 H   0  0  0  0  0  0  0  0  0  0  0  0
    0.4424    0.6285   -1.2659 H   0  0  0  0  0  0  0  0  0  0  0  0
   -2.9522    2.8076    0.2872 Cl  0  0  0  0  0  0  0  0  0  0  0  0
  1 11  1  0  0  0  0
  1  8  1  0  0  0  0
  1  5  1  0  0  0  0
  1  2  1  0  0  0  0
  2  3  1  0  0  0  0
  2  4  1  0  0  0  0
  3 20  1  0  0  0  0
  3 22  1  0  0  0  0
  3 21  1  0  0  0  0
  4 17  1  0  0  0  0
  4 18  1  0  0  0  0
  4 19  1  0  0  0  0
  5  7  1  0  0  0  0
  5  6  1  0  0  0  0
  6 23  1  0  0  0  0
  6 24  1  0  0  0  0
  6 25  1  0  0  0  0
  7 26  1  0  0  0  0
  7 27  1  0  0  0  0
  7 28  1  0  0  0  0
  8  9  1  0  0  0  0
  8 10  1  0  0  0  0
  9 15  1  0  0  0  0
  9 12  1  0  0  0  0
  9 13  1  0  0  0  0
 10 14  1  0  0  0  0
 10 16  1  0  0  0  0
 10 29  1  0  0  0  0
  1 30  1  0  0  0  0
M  END
> <fileName>
/Users/dawn_mao/Desktop/PhD_research/chpt4_Ti_ureate/TM_catalyst_framework/src/TM_catalyst_framework/metal_center_template/u1_d2_ON1.sdf

> <name>
XYZ file generated by Avogadro.

> <totalCharge>
0

> <totalSpinMultiplicity>
1

$$$$
