XYZ file generated by Avogadro.
  Avogadro11062515343D

 21 20  0  0  0  0  0  0  0  0999 V2000
   -0.6055    3.2099    0.7978 Ti  0  0  0  0  0  0  0  0  0  0  0  0
   -0.3052    5.1371    1.4506 N   0  0  0  0  0  0  0  0  0  0  0  0
   -1.5652    5.6446    1.9799 C   0  0  0  0  0  0  0  0  0  0  0  0
    0.7629    5.1037    2.4436 C   0  0  0  0  0  0  0  0  0  0  0  0
    0.3562    2.9237   -0.9922 N   0  0  0  0  0  0  0  0  0  0  0  0
    1.6174    3.6545   -0.9346 C   0  0  0  0  0  0  0  0  0  0  0  0
   -0.5277    3.3868   -2.0552 C   0  0  0  0  0  0  0  0  0  0  0  0
   -2.8810    2.7035    0.5904 Cl  0  0  0  0  0  0  0  0  0  0  0  0
   -1.4309    2.7441   -2.0743 H   0  0  0  0  0  0  0  0  0  0  0  0
   -0.8541    4.4337   -1.8788 H   0  0  0  0  0  0  0  0  0  0  0  0
    0.1232    1.9694    2.0725 F   0  0  0  0  0  0  0  0  0  0  0  0
   -1.4543    6.6834    2.3578 H   0  0  0  0  0  0  0  0  0  0  0  0
    2.2113    3.5017   -1.8594 H   0  0  0  0  0  0  0  0  0  0  0  0
   -0.0458    3.2941   -3.0505 H   0  0  0  0  0  0  0  0  0  0  0  0
    1.4552    4.7403   -0.7682 H   0  0  0  0  0  0  0  0  0  0  0  0
    2.2151    3.2640   -0.0857 H   0  0  0  0  0  0  0  0  0  0  0  0
    1.6780    4.6916    1.9739 H   0  0  0  0  0  0  0  0  0  0  0  0
    1.0095    6.1276    2.7984 H   0  0  0  0  0  0  0  0  0  0  0  0
    0.5029    4.4539    3.3052 H   0  0  0  0  0  0  0  0  0  0  0  0
   -2.3104    5.6740    1.1601 H   0  0  0  0  0  0  0  0  0  0  0  0
   -1.9593    4.9877    2.7835 H   0  0  0  0  0  0  0  0  0  0  0  0
  1 11  1  0  0  0  0
  1  8  1  0  0  0  0
  1  5  1  0  0  0  0
  1  2  1  0  0  0  0
  2  3  1  0  0  0  0
  2  4  1  0  0  0  0
  3 20  1  0  0  0  0
  3 12  1  0  0  0  0
  3 21  1  0  0  0  0
  4 17  1  0  0  0  0
  4 18  1  0  0  0  0
  4 19  1  0  0  0  0
  5  7  1  0  0  0  0
  5  6  1  0  0  0  0
  6 15  1  0  0  0  0
  6 16  1  0  0  0  0
  6 13  1  0  0  0  0
  7  9  1  0  0  0  0
  7 10  1  0  0  0  0
  7 14  1  0  0  0  0
M  END
> <fileName>
/Users/dawn_mao/Desktop/PhD_research/chpt4_Ti_ureate/TM_catalyst_framework/src/TM_catalyst_framework/metal_center_template/u1_d2_ON2.sdf

> <name>
XYZ file generated by Avogadro.

> <totalCharge>
0

> <totalSpinMultiplicity>
1

$$$$
