XYZ file generated by Avogadro.
  Avogadro11062515373D

 22 21  0  0  0  0  0  0  0  0999 V2000
   -0.7784    2.9503    1.0057 Ti  0  0  0  0  0  0  0  0  0  0  0  0
   -0.5842    4.9672    1.3629 N   0  0  0  0  0  0  0  0  0  0  0  0
   -1.8766    5.5052    1.7652 C   0  0  0  0  0  0  0  0  0  0  0  0
    0.4752    5.1759    2.3433 C   0  0  0  0  0  0  0  0  0  0  0  0
   -0.5950    2.8127   -1.0459 N   0  0  0  0  0  0  0  0  0  0  0  0
    0.6555    3.4734   -1.4187 C   0  0  0  0  0  0  0  0  0  0  0  0
   -1.7489    3.4336   -1.6899 C   0  0  0  0  0  0  0  0  0  0  0  0
   -1.0579    0.6585    0.5436 Cl  0  0  0  0  0  0  0  0  0  0  0  0
   -2.6603    2.8450   -1.4708 H   0  0  0  0  0  0  0  0  0  0  0  0
   -1.9066    4.4706   -1.3260 H   0  0  0  0  0  0  0  0  0  0  0  0
    0.8591    2.0503    1.4360 F   0  0  0  0  0  0  0  0  0  0  0  0
   -1.8349    6.6123    1.8422 H   0  0  0  0  0  0  0  0  0  0  0  0
    0.8443    3.3979   -2.5100 H   0  0  0  0  0  0  0  0  0  0  0  0
   -1.6528    3.4309   -2.7965 H   0  0  0  0  0  0  0  0  0  0  0  0
    0.6633    4.5410   -1.1153 H   0  0  0  0  0  0  0  0  0  0  0  0
    1.5042    2.9769   -0.9099 H   0  0  0  0  0  0  0  0  0  0  0  0
    1.4172    4.7428    1.9451 H   0  0  0  0  0  0  0  0  0  0  0  0
    0.6509    6.2595    2.5163 H   0  0  0  0  0  0  0  0  0  0  0  0
    0.2461    4.6704    3.3062 H   0  0  0  0  0  0  0  0  0  0  0  0
   -2.6201    5.2582    0.9790 H   0  0  0  0  0  0  0  0  0  0  0  0
   -2.2332    5.0593    2.7188 H   0  0  0  0  0  0  0  0  0  0  0  0
   -2.2558    2.5666    2.0291 Br  0  0  0  0  0  0  0  0  0  0  0  0
  1 11  1  0  0  0  0
  1  8  1  0  0  0  0
  1  5  1  0  0  0  0
  1  2  1  0  0  0  0
  2  3  1  0  0  0  0
  2  4  1  0  0  0  0
  3 20  1  0  0  0  0
  3 12  1  0  0  0  0
  3 21  1  0  0  0  0
  4 17  1  0  0  0  0
  4 18  1  0  0  0  0
  4 19  1  0  0  0  0
  5  7  1  0  0  0  0
  5  6  1  0  0  0  0
  6 15  1  0  0  0  0
  6 16  1  0  0  0  0
  6 13  1  0  0  0  0
  7  9  1  0  0  0  0
  7 10  1  0  0  0  0
  7 14  1  0  0  0  0
  1 22  1  0  0  0  0
M  END
> <fileName>
/Users/dawn_mao/Desktop/PhD_research/chpt4_Ti_ureate/TM_catalyst_framework/src/TM_catalyst_framework/metal_center_template/u2_d1.sdf

> <name>
XYZ file generated by Avogadro.

> <totalCharge>
0

> <totalSpinMultiplicity>
1

$$$$
