XYZ file generated by Avogadro.
  Avogadro11082514283D

 27 28  0  0  0  0  0  0  0  0999 V2000
   -0.8766    2.5836    0.8908 Ti  0  0  0  0  0  0  0  0  0  0  0  0
   -0.8634    4.6354    1.2271 N   0  0  0  0  0  0  0  0  0  0  0  0
   -2.1361    5.1427    1.7323 C   0  0  0  0  0  0  0  0  0  0  0  0
    0.2808    5.0778    2.0179 C   0  0  0  0  0  0  0  0  0  0  0  0
   -0.6010    2.8797   -1.1500 N   0  0  0  0  0  0  0  0  0  0  0  0
    0.7932    3.1862   -1.4567 C   0  0  0  0  0  0  0  0  0  0  0  0
   -1.5266    3.8365   -1.7552 C   0  0  0  0  0  0  0  0  0  0  0  0
   -1.1500    2.2520    2.8221 O   0  0  0  0  0  0  0  0  0  0  0  0
   -2.5738    3.5281   -1.5761 H   0  0  0  0  0  0  0  0  0  0  0  0
   -1.3868    4.8633   -1.3603 H   0  0  0  0  0  0  0  0  0  0  0  0
   -2.8241    2.4354    0.6676 O   0  0  0  0  0  0  0  0  0  0  0  0
   -2.1157    6.2443    1.8728 H   0  0  0  0  0  0  0  0  0  0  0  0
    0.9623    3.3460   -2.5428 H   0  0  0  0  0  0  0  0  0  0  0  0
   -1.4147    3.8569   -2.8597 H   0  0  0  0  0  0  0  0  0  0  0  0
    1.1400    4.0716   -0.8853 H   0  0  0  0  0  0  0  0  0  0  0  0
    1.4234    2.3154   -1.1921 H   0  0  0  0  0  0  0  0  0  0  0  0
    1.2161    4.7080    1.5538 H   0  0  0  0  0  0  0  0  0  0  0  0
    0.3584    6.1856    2.0274 H   0  0  0  0  0  0  0  0  0  0  0  0
    0.2287    4.7089    3.0634 H   0  0  0  0  0  0  0  0  0  0  0  0
   -2.9301    4.9580    0.9817 H   0  0  0  0  0  0  0  0  0  0  0  0
   -2.4163    4.6506    2.6867 H   0  0  0  0  0  0  0  0  0  0  0  0
    1.2023    1.6118    1.7194 I   0  0  0  0  0  0  0  0  0  0  0  0
   -1.2502    0.2074    0.3794 Br  0  0  0  0  0  0  0  0  0  0  0  0
    0.0864    1.8246    3.3328 C   0  0  0  0  0  0  0  0  0  0  0  0
   -2.9791    1.0938    0.2840 C   0  0  0  0  0  0  0  0  0  0  0  0
   -3.8674    0.4645    1.1349 F   0  0  0  0  0  0  0  0  0  0  0  0
   -0.0796    0.2105    4.0541 Cl  0  0  0  0  0  0  0  0  0  0  0  0
  1 11  1  0  0  0  0
  1  8  1  0  0  0  0
  1  5  1  0  0  0  0
  1  2  1  0  0  0  0
  1 22  1  0  0  0  0
  1 23  1  0  0  0  0
  2  3  1  0  0  0  0
  2  4  1  0  0  0  0
  3 20  1  0  0  0  0
  3 12  1  0  0  0  0
  3 21  1  0  0  0  0
  4 17  1  0  0  0  0
  4 18  1  0  0  0  0
  4 19  1  0  0  0  0
  5  7  1  0  0  0  0
  5  6  1  0  0  0  0
  6 15  1  0  0  0  0
  6 16  1  0  0  0  0
  6 13  1  0  0  0  0
  7  9  1  0  0  0  0
  7 10  1  0  0  0  0
  7 14  1  0  0  0  0
  8 24  1  0  0  0  0
 11 25  1  0  0  0  0
 22 24  1  0  0  0  0
 23 25  1  0  0  0  0
 25 26  1  0  0  0  0
 24 27  1  0  0  0  0
M  END
> <fileName>
/Users/dawn_mao/Desktop/PhD_research/chpt4_Ti_ureate/TM_catalyst_framework/src/TM_catalyst_framework/metal_center_template/u2_d2d2_iso4.sdf

> <name>
XYZ file generated by Avogadro.

$$$$
