
  Avogadro11082514263D

 27 28  0  0  0  0  0  0  0  0999 V2000
    0.2327    3.1323    1.0191 Ti  0  0  0  0  0  0  0  0  0  0  0  0
   -0.7489    4.9253    1.5084 N   0  0  0  0  0  0  0  0  0  0  0  0
   -2.1885    4.8000    1.7367 C   0  0  0  0  0  0  0  0  0  0  0  0
   -0.1306    5.8126    2.4938 C   0  0  0  0  0  0  0  0  0  0  0  0
    1.2347    1.3715    0.4808 N   0  0  0  0  0  0  0  0  0  0  0  0
    0.9045    0.1189    1.1602 C   0  0  0  0  0  0  0  0  0  0  0  0
    1.7380    1.2135   -0.8795 C   0  0  0  0  0  0  0  0  0  0  0  0
   -1.4629    2.1483    0.8904 O   0  0  0  0  0  0  0  0  0  0  0  0
    0.9224    0.8629   -1.5561 H   0  0  0  0  0  0  0  0  0  0  0  0
    2.1328    2.1764   -1.2604 H   0  0  0  0  0  0  0  0  0  0  0  0
    1.9554    4.0978    0.8458 O   0  0  0  0  0  0  0  0  0  0  0  0
   -2.6751    5.7547    2.0156 H   0  0  0  0  0  0  0  0  0  0  0  0
    0.8718   -0.7737    0.4948 H   0  0  0  0  0  0  0  0  0  0  0  0
    2.5727    0.4813   -0.9281 H   0  0  0  0  0  0  0  0  0  0  0  0
    1.6781   -0.0787    1.9341 H   0  0  0  0  0  0  0  0  0  0  0  0
   -0.0761    0.1914    1.6703 H   0  0  0  0  0  0  0  0  0  0  0  0
    0.9307    5.9850    2.2505 H   0  0  0  0  0  0  0  0  0  0  0  0
   -0.5868    6.8226    2.4662 H   0  0  0  0  0  0  0  0  0  0  0  0
   -0.2265    5.4087    3.5227 H   0  0  0  0  0  0  0  0  0  0  0  0
   -2.7059    4.5219    0.7993 H   0  0  0  0  0  0  0  0  0  0  0  0
   -2.3973    4.0537    2.5283 H   0  0  0  0  0  0  0  0  0  0  0  0
    1.3915    2.8294    3.1480 I   0  0  0  0  0  0  0  0  0  0  0  0
   -0.5548    3.5632   -1.2828 Br  0  0  0  0  0  0  0  0  0  0  0  0
   -1.7884    2.2969   -0.4704 C   0  0  0  0  0  0  0  0  0  0  0  0
    2.7590    3.6676    1.9182 C   0  0  0  0  0  0  0  0  0  0  0  0
   -1.6955    1.0731   -1.1072 F   0  0  0  0  0  0  0  0  0  0  0  0
    3.6370    5.0506    2.6242 Cl  0  0  0  0  0  0  0  0  0  0  0  0
  1 11  1  0  0  0  0
  1  8  1  0  0  0  0
  1  5  1  0  0  0  0
  1  2  1  0  0  0  0
  1 22  1  0  0  0  0
  1 23  1  0  0  0  0
  2  3  1  0  0  0  0
  2  4  1  0  0  0  0
  3 20  1  0  0  0  0
  3 12  1  0  0  0  0
  3 21  1  0  0  0  0
  4 17  1  0  0  0  0
  4 18  1  0  0  0  0
  4 19  1  0  0  0  0
  5  7  1  0  0  0  0
  5  6  1  0  0  0  0
  6 15  1  0  0  0  0
  6 16  1  0  0  0  0
  6 13  1  0  0  0  0
  7  9  1  0  0  0  0
  7 10  1  0  0  0  0
  7 14  1  0  0  0  0
  8 24  1  0  0  0  0
 11 25  1  0  0  0  0
 22 25  1  0  0  0  0
 23 24  1  0  0  0  0
 24 26  1  0  0  0  0
 25 27  1  0  0  0  0
M  END
> <fileName>
/Users/dawn_mao/Desktop/PhD_research/chpt4_Ti_ureate/TM_catalyst_framework/src/TM_catalyst_framework/metal_center_template/u2_d2d2_iso1.sdf

$$$$
