XYZ file generated by Avogadro.
 OpenBabel11082514273D

 27 28  0  0  1  0  0  0  0  0999 V2000
    0.3462    3.2104    0.8901 Ti  0  0  0  0  0  0  0  0  0  0  0  0
   -0.5105    5.0453    1.4925 N   0  0  0  0  0  0  0  0  0  0  0  0
   -1.9334    5.2881    1.2460 C   0  0  0  0  0  0  0  0  0  0  0  0
   -0.1696    5.4630    2.8527 C   0  0  0  0  0  0  0  0  0  0  0  0
    1.3298    1.4419    0.3473 N   0  0  0  0  0  0  0  0  0  0  0  0
    1.1523    0.2946    1.2408 C   0  0  0  0  0  0  0  0  0  0  0  0
    1.4470    1.0706   -1.0621 C   0  0  0  0  0  0  0  0  0  0  0  0
   -1.2176    2.1990    1.5067 O   0  0  0  0  0  0  0  0  0  0  0  0
    0.5127    0.5904   -1.4296 H   0  0  0  0  0  0  0  0  0  0  0  0
    1.6569    1.9747   -1.6705 H   0  0  0  0  0  0  0  0  0  0  0  0
    1.3772    3.0935    2.5751 O   0  0  0  0  0  0  0  0  0  0  0  0
   -2.2568    6.3093    1.5358 H   0  0  0  0  0  0  0  0  0  0  0  0
    1.8900   -0.5132    1.0202 H   0  0  0  0  0  0  0  0  0  0  0  0
    2.3036    0.3768   -1.2250 H   0  0  0  0  0  0  0  0  0  0  0  0
    1.3263    0.5946    2.2998 H   0  0  0  0  0  0  0  0  0  0  0  0
    0.1240   -0.1210    1.1642 H   0  0  0  0  0  0  0  0  0  0  0  0
    0.9201    5.6101    2.9429 H   0  0  0  0  0  0  0  0  0  0  0  0
   -0.5643    6.4599    3.1305 H   0  0  0  0  0  0  0  0  0  0  0  0
   -0.5119    4.7121    3.5919 H   0  0  0  0  0  0  0  0  0  0  0  0
   -2.1658    5.2826    0.1707 H   0  0  0  0  0  0  0  0  0  0  0  0
   -2.5702    4.5617    1.7838 H   0  0  0  0  0  0  0  0  0  0  0  0
    2.4253    4.3024    0.4266 I   0  0  0  0  0  0  0  0  0  0  0  0
   -1.1049    3.0817   -1.1199 Br  0  0  0  0  0  0  0  0  0  0  0  0
   -2.0087    2.1534    0.3406 C   0  0  1  0  0  0  0  0  0  0  0  0
    2.6824    3.4801    2.2295 C   0  0  1  0  0  0  0  0  0  0  0  0
   -2.3595    0.4828   -0.1351 Cl  0  0  0  0  0  0  0  0  0  0  0  0
    3.1677    4.3767    3.1614 F   0  0  0  0  0  0  0  0  0  0  0  0
  1 11  1  0  0  0  0
  1  8  1  0  0  0  0
  1  5  1  0  0  0  0
  1  2  1  0  0  0  0
  1 22  1  0  0  0  0
  1 23  1  0  0  0  0
  2  3  1  0  0  0  0
  2  4  1  0  0  0  0
  3 20  1  0  0  0  0
  3 12  1  0  0  0  0
  3 21  1  0  0  0  0
  4 17  1  0  0  0  0
  4 18  1  0  0  0  0
  4 19  1  0  0  0  0
  5  7  1  0  0  0  0
  5  6  1  0  0  0  0
  6 15  1  0  0  0  0
  6 16  1  0  0  0  0
  6 13  1  0  0  0  0
  7  9  1  0  0  0  0
  7 10  1  0  0  0  0
  7 14  1  0  0  0  0
  8 24  1  0  0  0  0
 11 25  1  0  0  0  0
 22 25  1  0  0  0  0
 23 24  1  0  0  0  0
 24 26  1  6  0  0  0
 25 27  1  1  0  0  0
M  END
$$$$
