XYZ file generated by Avogadro.
  Avogadro11062515413D

 23 22  0  0  0  0  0  0  0  0999 V2000
   -0.8293    2.6750    0.8911 Ti  0  0  0  0  0  0  0  0  0  0  0  0
   -0.8456    4.7393    1.2023 N   0  0  0  0  0  0  0  0  0  0  0  0
   -2.1371    5.3130    1.5773 C   0  0  0  0  0  0  0  0  0  0  0  0
    0.2222    5.1535    2.1107 C   0  0  0  0  0  0  0  0  0  0  0  0
   -0.5573    2.9376   -1.1629 N   0  0  0  0  0  0  0  0  0  0  0  0
    0.8030    3.3905   -1.4504 C   0  0  0  0  0  0  0  0  0  0  0  0
   -1.5629    3.7718   -1.8227 C   0  0  0  0  0  0  0  0  0  0  0  0
   -0.8281    0.3803    0.4964 Cl  0  0  0  0  0  0  0  0  0  0  0  0
   -2.5587    3.2982   -1.7418 H   0  0  0  0  0  0  0  0  0  0  0  0
   -1.6052    4.7956   -1.3960 H   0  0  0  0  0  0  0  0  0  0  0  0
   -1.1157    2.3763    2.7730 F   0  0  0  0  0  0  0  0  0  0  0  0
   -2.0932    6.4207    1.6571 H   0  0  0  0  0  0  0  0  0  0  0  0
    0.9694    3.5825   -2.5327 H   0  0  0  0  0  0  0  0  0  0  0  0
   -1.3896    3.8426   -2.9198 H   0  0  0  0  0  0  0  0  0  0  0  0
    1.0534    4.3077   -0.8769 H   0  0  0  0  0  0  0  0  0  0  0  0
    1.5205    2.5870   -1.1898 H   0  0  0  0  0  0  0  0  0  0  0  0
    1.2017    4.8795    1.6714 H   0  0  0  0  0  0  0  0  0  0  0  0
    0.2513    6.2546    2.2535 H   0  0  0  0  0  0  0  0  0  0  0  0
    0.1133    4.6643    3.1009 H   0  0  0  0  0  0  0  0  0  0  0  0
   -2.8771    5.1272    0.7751 H   0  0  0  0  0  0  0  0  0  0  0  0
   -2.5094    4.8838    2.5308 H   0  0  0  0  0  0  0  0  0  0  0  0
    1.5666    1.8836    1.7284 I   0  0  0  0  0  0  0  0  0  0  0  0
   -3.3138    2.2869    0.7782 Br  0  0  0  0  0  0  0  0  0  0  0  0
  1 11  1  0  0  0  0
  1  8  1  0  0  0  0
  1  5  1  0  0  0  0
  1  2  1  0  0  0  0
  2  3  1  0  0  0  0
  2  4  1  0  0  0  0
  3 20  1  0  0  0  0
  3 12  1  0  0  0  0
  3 21  1  0  0  0  0
  4 17  1  0  0  0  0
  4 18  1  0  0  0  0
  4 19  1  0  0  0  0
  5  7  1  0  0  0  0
  5  6  1  0  0  0  0
  6 15  1  0  0  0  0
  6 16  1  0  0  0  0
  6 13  1  0  0  0  0
  7  9  1  0  0  0  0
  7 10  1  0  0  0  0
  7 14  1  0  0  0  0
  1 22  1  0  0  0  0
  1 23  1  0  0  0  0
M  END
> <fileName>
/Users/dawn_mao/Desktop/PhD_research/chpt4_Ti_ureate/TM_catalyst_framework/src/TM_catalyst_framework/metal_center_template/u2_d1_d2_ON2.sdf

> <name>
XYZ file generated by Avogadro.

> <totalCharge>
0

> <totalSpinMultiplicity>
1

$$$$
