XYZ file generated by Avogadro.
 OpenBabel11082514333D

 27 28  0  0  1  0  0  0  0  0999 V2000
   -0.7902    2.4487    0.6771 Ti  0  0  0  0  0  0  0  0  0  0  0  0
   -0.9369    4.4661    1.1898 N   0  0  0  0  0  0  0  0  0  0  0  0
   -2.2476    4.9727    1.5847 C   0  0  0  0  0  0  0  0  0  0  0  0
    0.1282    4.9011    2.0878 C   0  0  0  0  0  0  0  0  0  0  0  0
   -0.4279    2.9546   -1.3063 N   0  0  0  0  0  0  0  0  0  0  0  0
    0.9407    3.4344   -1.4841 C   0  0  0  0  0  0  0  0  0  0  0  0
   -1.4099    3.8627   -1.8967 C   0  0  0  0  0  0  0  0  0  0  0  0
   -0.6036    0.5648    0.1165 O   0  0  0  0  0  0  0  0  0  0  0  0
   -2.4253    3.4302   -1.8257 H   0  0  0  0  0  0  0  0  0  0  0  0
   -1.4099    4.8598   -1.4091 H   0  0  0  0  0  0  0  0  0  0  0  0
   -1.3291    1.9068    2.4877 O   0  0  0  0  0  0  0  0  0  0  0  0
   -2.2424    6.0770    1.7076 H   0  0  0  0  0  0  0  0  0  0  0  0
    1.1726    3.6395   -2.5513 H   0  0  0  0  0  0  0  0  0  0  0  0
   -1.2269    3.9958   -2.9848 H   0  0  0  0  0  0  0  0  0  0  0  0
    1.1332    4.3434   -0.8764 H   0  0  0  0  0  0  0  0  0  0  0  0
    1.6531    2.6432   -1.1806 H   0  0  0  0  0  0  0  0  0  0  0  0
    1.1095    4.6663    1.6314 H   0  0  0  0  0  0  0  0  0  0  0  0
    0.1316    6.0029    2.2315 H   0  0  0  0  0  0  0  0  0  0  0  0
    0.0519    4.3924    3.0716 H   0  0  0  0  0  0  0  0  0  0  0  0
   -2.9805    4.7845    0.7766 H   0  0  0  0  0  0  0  0  0  0  0  0
   -2.5949    4.5086    2.5295 H   0  0  0  0  0  0  0  0  0  0  0  0
    1.3124    1.6353    1.6283 I   0  0  0  0  0  0  0  0  0  0  0  0
   -3.1995    1.9245    0.4801 Br  0  0  0  0  0  0  0  0  0  0  0  0
    0.6930    0.1650    0.4729 C   0  0  1  0  0  0  0  0  0  0  0  0
   -2.6548    1.4838    2.2943 C   0  0  2  0  0  0  0  0  0  0  0  0
   -3.4868    2.1212    3.1937 F   0  0  0  0  0  0  0  0  0  0  0  0
    0.6122   -1.3314    1.4245 Cl  0  0  0  0  0  0  0  0  0  0  0  0
  1 11  1  0  0  0  0
  1  8  1  0  0  0  0
  1  5  1  0  0  0  0
  1  2  1  0  0  0  0
  1 22  1  0  0  0  0
  1 23  1  0  0  0  0
  2  3  1  0  0  0  0
  2  4  1  0  0  0  0
  3 20  1  0  0  0  0
  3 12  1  0  0  0  0
  3 21  1  0  0  0  0
  4 17  1  0  0  0  0
  4 18  1  0  0  0  0
  4 19  1  0  0  0  0
  5  7  1  0  0  0  0
  5  6  1  0  0  0  0
  6 15  1  0  0  0  0
  6 16  1  0  0  0  0
  6 13  1  0  0  0  0
  7  9  1  0  0  0  0
  7 10  1  0  0  0  0
  7 14  1  0  0  0  0
  8 24  1  0  0  0  0
 11 25  1  0  0  0  0
 22 24  1  0  0  0  0
 23 25  1  0  0  0  0
 24 27  1  1  0  0  0
 25 26  1  1  0  0  0
M  END
$$$$
