XYZ file generated by Avogadro.
  Avogadro11082514313D

 27 28  0  0  0  0  0  0  0  0999 V2000
   -1.0623    2.5312    0.9601 Ti  0  0  0  0  0  0  0  0  0  0  0  0
   -0.9113    4.5912    1.2854 N   0  0  0  0  0  0  0  0  0  0  0  0
   -2.1640    5.1815    1.7525 C   0  0  0  0  0  0  0  0  0  0  0  0
    0.2473    5.0370    2.0555 C   0  0  0  0  0  0  0  0  0  0  0  0
   -0.5995    2.8056   -1.0554 N   0  0  0  0  0  0  0  0  0  0  0  0
    0.8135    3.0942   -1.2844 C   0  0  0  0  0  0  0  0  0  0  0  0
   -1.4698    3.7653   -1.7359 C   0  0  0  0  0  0  0  0  0  0  0  0
    0.7996    2.1572    1.5038 O   0  0  0  0  0  0  0  0  0  0  0  0
   -2.5284    3.4569   -1.6573 H   0  0  0  0  0  0  0  0  0  0  0  0
   -1.3673    4.7888   -1.3250 H   0  0  0  0  0  0  0  0  0  0  0  0
   -3.0015    2.5236    0.6099 O   0  0  0  0  0  0  0  0  0  0  0  0
   -2.0983    6.2839    1.8663 H   0  0  0  0  0  0  0  0  0  0  0  0
    1.0507    3.1844   -2.3638 H   0  0  0  0  0  0  0  0  0  0  0  0
   -1.2630    3.8034   -2.8250 H   0  0  0  0  0  0  0  0  0  0  0  0
    1.1216    4.0249   -0.7718 H   0  0  0  0  0  0  0  0  0  0  0  0
    1.4308    2.2513   -0.9236 H   0  0  0  0  0  0  0  0  0  0  0  0
    1.1788    4.6633    1.5911 H   0  0  0  0  0  0  0  0  0  0  0  0
    0.3453    6.1426    2.0505 H   0  0  0  0  0  0  0  0  0  0  0  0
    0.2022    4.6805    3.1034 H   0  0  0  0  0  0  0  0  0  0  0  0
   -2.9564    5.0168    0.9961 H   0  0  0  0  0  0  0  0  0  0  0  0
   -2.4820    4.7281    2.7133 H   0  0  0  0  0  0  0  0  0  0  0  0
   -1.1942    1.8212    3.2944 I   0  0  0  0  0  0  0  0  0  0  0  0
   -1.5667    0.1785    0.4603 Br  0  0  0  0  0  0  0  0  0  0  0  0
    0.7023    1.7368    2.8379 C   0  0  0  0  0  0  0  0  0  0  0  0
   -3.2516    1.1476    0.4588 C   0  0  0  0  0  0  0  0  0  0  0  0
    2.2726    1.1869    3.4474 Cl  0  0  0  0  0  0  0  0  0  0  0  0
   -3.9009    0.9298   -0.7397 F   0  0  0  0  0  0  0  0  0  0  0  0
  1 11  1  0  0  0  0
  1  8  1  0  0  0  0
  1  5  1  0  0  0  0
  1  2  1  0  0  0  0
  2  3  1  0  0  0  0
  2  4  1  0  0  0  0
  3 20  1  0  0  0  0
  3 12  1  0  0  0  0
  3 21  1  0  0  0  0
  4 17  1  0  0  0  0
  4 18  1  0  0  0  0
  4 19  1  0  0  0  0
  5  7  1  0  0  0  0
  5  6  1  0  0  0  0
  6 15  1  0  0  0  0
  6 16  1  0  0  0  0
  6 13  1  0  0  0  0
  7  9  1  0  0  0  0
  7 10  1  0  0  0  0
  7 14  1  0  0  0  0
  1 22  1  0  0  0  0
  1 23  1  0  0  0  0
  8 24  1  0  0  0  0
 22 24  1  0  0  0  0
 23 25  1  0  0  0  0
 11 25  1  0  0  0  0
 24 26  1  0  0  0  0
 25 27  1  0  0  0  0
M  END
> <fileName>
/Users/dawn_mao/Desktop/PhD_research/chpt4_Ti_ureate/TM_catalyst_framework/src/TM_catalyst_framework/metal_center_template/u2_d2d2_iso6.sdf

> <name>
XYZ file generated by Avogadro.

> <totalCharge>
0

> <totalSpinMultiplicity>
1

$$$$
