
 OpenBabel11242515373D

103108  0  0  0  0  0  0  0  0999 V2000
   -0.7478    2.4046    0.8067 Ti  0  0  0  0  0  0  0  0  0  0  0  0
   -0.4163    4.4667    1.3306 N   0  0  0  0  0  0  0  0  0  0  0  0
   -0.1192    5.3389    0.1750 C   0  0  0  0  0  0  0  0  0  0  0  0
   -1.4886    5.1149    2.1083 C   0  0  0  0  0  0  0  0  0  0  0  0
    0.7565    4.9859   -0.3903 H   0  0  0  0  0  0  0  0  0  0  0  0
    0.1403    6.3647    0.5161 H   0  0  0  0  0  0  0  0  0  0  0  0
   -0.9782    5.4214   -0.5185 H   0  0  0  0  0  0  0  0  0  0  0  0
   -1.2475    6.1804    2.3148 H   0  0  0  0  0  0  0  0  0  0  0  0
   -2.4587    5.0777    1.5731 H   0  0  0  0  0  0  0  0  0  0  0  0
   -1.5926    4.6581    3.1001 H   0  0  0  0  0  0  0  0  0  0  0  0
   -1.1174    0.3876    0.2738 N   0  0  0  0  0  0  0  0  0  0  0  0
   -1.9523   -0.4122    1.1711 C   0  0  0  0  0  0  0  0  0  0  0  0
   -1.5839    0.2339   -1.1118 C   0  0  0  0  0  0  0  0  0  0  0  0
   -3.0159   -0.1359    1.0627 H   0  0  0  0  0  0  0  0  0  0  0  0
   -1.6083   -0.3108    2.2167 H   0  0  0  0  0  0  0  0  0  0  0  0
   -1.8604   -1.4878    0.9089 H   0  0  0  0  0  0  0  0  0  0  0  0
   -2.5001    0.8371   -1.2816 H   0  0  0  0  0  0  0  0  0  0  0  0
   -1.7869   -0.8329   -1.3506 H   0  0  0  0  0  0  0  0  0  0  0  0
   -0.7941    0.5425   -1.8230 H   0  0  0  0  0  0  0  0  0  0  0  0
   -2.0019    1.8735    6.7347 C   0  0  0  0  0  0  0  0  0  0  0  0
   -1.3758    1.9427    5.3286 C   0  0  1  0  0  0  0  0  0  0  0  0
   -2.3335    2.2837    4.2472 N   0  0  0  0  0  0  0  0  0  0  0  0
   -3.6376    2.8375    4.5984 C   0  0  0  0  0  0  0  0  0  0  0  0
   -1.8866    2.2152    2.9417 C   0  0  0  0  0  0  0  0  0  0  0  0
   -2.5492    2.4268    1.7220 N   0  0  0  0  0  0  0  0  0  0  0  0
   -3.9329    2.3980    1.2741 C   0  0  0  0  0  0  0  0  0  0  0  0
   -4.9478    1.5783    1.9043 C   0  0  0  0  0  0  0  0  0  0  0  0
   -4.7303    0.5757    3.0155 C   0  0  0  0  0  0  0  0  0  0  0  0
   -6.2668    1.5944    1.4236 C   0  0  0  0  0  0  0  0  0  0  0  0
   -6.6181    2.3455    0.3177 C   0  0  0  0  0  0  0  0  0  0  0  0
   -5.6507    3.0706   -0.3560 C   0  0  0  0  0  0  0  0  0  0  0  0
   -4.3205    3.0921    0.0906 C   0  0  0  0  0  0  0  0  0  0  0  0
   -3.3601    3.8569   -0.7545 C   0  0  0  0  0  0  0  0  0  0  0  0
   -0.6806    2.0352    2.6798 O   0  0  0  0  0  0  0  0  0  0  0  0
   -0.2052    2.9198    5.3838 C   0  0  0  0  0  0  0  0  0  0  0  0
   -0.4262    4.3055    5.5070 C   0  0  0  0  0  0  0  0  0  0  0  0
    0.6492    5.1955    5.5798 C   0  0  0  0  0  0  0  0  0  0  0  0
    1.9579    4.7140    5.5576 C   0  0  0  0  0  0  0  0  0  0  0  0
    2.1926    3.3421    5.4516 C   0  0  0  0  0  0  0  0  0  0  0  0
    1.1208    2.4476    5.3517 C   0  0  0  0  0  0  0  0  0  0  0  0
   -2.8097    1.1130    6.7589 H   0  0  0  0  0  0  0  0  0  0  0  0
   -2.4000    2.8554    7.0629 H   0  0  0  0  0  0  0  0  0  0  0  0
   -1.2271    1.5586    7.4684 H   0  0  0  0  0  0  0  0  0  0  0  0
   -0.9986    0.9104    5.1436 H   0  0  0  0  0  0  0  0  0  0  0  0
   -3.4998    3.7450    5.2187 H   0  0  0  0  0  0  0  0  0  0  0  0
   -4.2266    2.1164    5.1961 H   0  0  0  0  0  0  0  0  0  0  0  0
   -4.2092    3.1850    3.7251 H   0  0  0  0  0  0  0  0  0  0  0  0
   -5.0241   -0.4319    2.6519 H   0  0  0  0  0  0  0  0  0  0  0  0
   -5.3861    0.8068    3.8797 H   0  0  0  0  0  0  0  0  0  0  0  0
   -3.6882    0.4660    3.3417 H   0  0  0  0  0  0  0  0  0  0  0  0
   -7.0321    0.9885    1.8974 H   0  0  0  0  0  0  0  0  0  0  0  0
   -7.6391    2.3307   -0.0423 H   0  0  0  0  0  0  0  0  0  0  0  0
   -5.9397    3.6127   -1.2483 H   0  0  0  0  0  0  0  0  0  0  0  0
   -3.6570    4.9248   -0.8065 H   0  0  0  0  0  0  0  0  0  0  0  0
   -3.3485    3.4275   -1.7796 H   0  0  0  0  0  0  0  0  0  0  0  0
   -2.3524    3.7732   -0.3522 H   0  0  0  0  0  0  0  0  0  0  0  0
   -1.4294    4.7031    5.5404 H   0  0  0  0  0  0  0  0  0  0  0  0
    0.4670    6.2593    5.6620 H   0  0  0  0  0  0  0  0  0  0  0  0
    2.7903    5.4033    5.6253 H   0  0  0  0  0  0  0  0  0  0  0  0
    3.2084    2.9734    5.4497 H   0  0  0  0  0  0  0  0  0  0  0  0
    1.3284    1.3879    5.2727 H   0  0  0  0  0  0  0  0  0  0  0  0
    3.4465    0.8617   -2.5832 C   0  0  0  0  0  0  0  0  0  0  0  0
    3.2206    2.2053   -1.8702 C   0  0  2  0  0  0  0  0  0  0  0  0
    1.8037    2.5735   -2.0049 N   0  0  0  0  0  0  0  0  0  0  0  0
    1.2871    2.9575   -3.3112 C   0  0  0  0  0  0  0  0  0  0  0  0
    0.9204    2.5330   -0.9504 C   0  0  0  0  0  0  0  0  0  0  0  0
    1.1829    2.2503    0.3820 N   0  0  0  0  0  0  0  0  0  0  0  0
    2.2304    1.7389    1.2104 C   0  0  0  0  0  0  0  0  0  0  0  0
    2.3728    0.3318    1.3717 C   0  0  0  0  0  0  0  0  0  0  0  0
    1.6206   -0.6721    0.5475 C   0  0  0  0  0  0  0  0  0  0  0  0
    3.2561   -0.1786    2.3301 C   0  0  0  0  0  0  0  0  0  0  0  0
    4.0294    0.6754    3.1039 C   0  0  0  0  0  0  0  0  0  0  0  0
    3.9393    2.0518    2.9224 C   0  0  0  0  0  0  0  0  0  0  0  0
    3.0403    2.5994    1.9936 C   0  0  0  0  0  0  0  0  0  0  0  0
    2.9868    4.0926    1.8850 C   0  0  0  0  0  0  0  0  0  0  0  0
   -0.3200    2.7239   -1.0418 O   0  0  0  0  0  0  0  0  0  0  0  0
    4.1682    3.3216   -2.3223 C   0  0  0  0  0  0  0  0  0  0  0  0
    5.1391    3.1351   -3.3356 C   0  0  0  0  0  0  0  0  0  0  0  0
    6.0180    4.1649   -3.6829 C   0  0  0  0  0  0  0  0  0  0  0  0
    5.9470    5.3961   -3.0331 C   0  0  0  0  0  0  0  0  0  0  0  0
    4.9920    5.6022   -2.0365 C   0  0  0  0  0  0  0  0  0  0  0  0
    4.1091    4.5744   -1.6834 C   0  0  0  0  0  0  0  0  0  0  0  0
    3.2461    0.9413   -3.6721 H   0  0  0  0  0  0  0  0  0  0  0  0
    4.4869    0.5072   -2.4243 H   0  0  0  0  0  0  0  0  0  0  0  0
    2.7604    0.0979   -2.1622 H   0  0  0  0  0  0  0  0  0  0  0  0
    3.4832    2.0171   -0.8227 H   0  0  0  0  0  0  0  0  0  0  0  0
    0.8725    3.9881   -3.2580 H   0  0  0  0  0  0  0  0  0  0  0  0
    0.4878    2.2564   -3.6292 H   0  0  0  0  0  0  0  0  0  0  0  0
    2.0835    2.9593   -4.0853 H   0  0  0  0  0  0  0  0  0  0  0  0
    1.0955   -0.2005   -0.2967 H   0  0  0  0  0  0  0  0  0  0  0  0
    0.9181   -1.2497    1.1857 H   0  0  0  0  0  0  0  0  0  0  0  0
    2.3395   -1.3770    0.0812 H   0  0  0  0  0  0  0  0  0  0  0  0
    3.3477   -1.2493    2.4733 H   0  0  0  0  0  0  0  0  0  0  0  0
    4.7074    0.2663    3.8416 H   0  0  0  0  0  0  0  0  0  0  0  0
    4.5616    2.6984    3.5274 H   0  0  0  0  0  0  0  0  0  0  0  0
    3.9917    4.4717    1.6010 H   0  0  0  0  0  0  0  0  0  0  0  0
    2.6951    4.5388    2.8553 H   0  0  0  0  0  0  0  0  0  0  0  0
    2.2734    4.4254    1.1216 H   0  0  0  0  0  0  0  0  0  0  0  0
    5.2425    2.1975   -3.8612 H   0  0  0  0  0  0  0  0  0  0  0  0
    6.7611    4.0035   -4.4540 H   0  0  0  0  0  0  0  0  0  0  0  0
    6.6345    6.1886   -3.3015 H   0  0  0  0  0  0  0  0  0  0  0  0
    4.9411    6.5588   -1.5325 H   0  0  0  0  0  0  0  0  0  0  0  0
    3.3843    4.7554   -0.9050 H   0  0  0  0  0  0  0  0  0  0  0  0
  1  2  1  0  0  0  0
  1 11  1  0  0  0  0
  1 34  1  0  0  0  0
  1 25  1  0  0  0  0
  1 76  1  0  0  0  0
  1 67  1  0  0  0  0
  2  3  1  0  0  0  0
  2  4  1  0  0  0  0
  3  5  1  0  0  0  0
  3  6  1  0  0  0  0
  3  7  1  0  0  0  0
  4  8  1  0  0  0  0
  4  9  1  0  0  0  0
  4 10  1  0  0  0  0
 11 12  1  0  0  0  0
 11 13  1  0  0  0  0
 12 14  1  0  0  0  0
 12 15  1  0  0  0  0
 12 16  1  0  0  0  0
 13 17  1  0  0  0  0
 13 18  1  0  0  0  0
 13 19  1  0  0  0  0
 20 21  1  0  0  0  0
 20 41  1  0  0  0  0
 20 42  1  0  0  0  0
 20 43  1  0  0  0  0
 21 22  1  0  0  0  0
 21 35  1  0  0  0  0
 21 44  1  6  0  0  0
 22 23  1  0  0  0  0
 22 24  1  0  0  0  0
 23 45  1  0  0  0  0
 23 46  1  0  0  0  0
 23 47  1  0  0  0  0
 24 25  1  0  0  0  0
 24 34  2  0  0  0  0
 25 26  1  0  0  0  0
 26 27  2  0  0  0  0
 26 32  1  0  0  0  0
 27 28  1  0  0  0  0
 27 29  1  0  0  0  0
 28 48  1  0  0  0  0
 28 49  1  0  0  0  0
 28 50  1  0  0  0  0
 29 30  2  0  0  0  0
 29 51  1  0  0  0  0
 30 31  1  0  0  0  0
 30 52  1  0  0  0  0
 31 32  2  0  0  0  0
 31 53  1  0  0  0  0
 32 33  1  0  0  0  0
 33 54  1  0  0  0  0
 33 55  1  0  0  0  0
 33 56  1  0  0  0  0
 35 36  2  0  0  0  0
 35 40  1  0  0  0  0
 36 37  1  0  0  0  0
 36 57  1  0  0  0  0
 37 38  2  0  0  0  0
 37 58  1  0  0  0  0
 38 39  1  0  0  0  0
 38 59  1  0  0  0  0
 39 40  2  0  0  0  0
 39 60  1  0  0  0  0
 40 61  1  0  0  0  0
 62 63  1  0  0  0  0
 62 83  1  0  0  0  0
 62 84  1  0  0  0  0
 62 85  1  0  0  0  0
 63 64  1  0  0  0  0
 63 77  1  0  0  0  0
 63 86  1  1  0  0  0
 64 65  1  0  0  0  0
 64 66  1  0  0  0  0
 65 87  1  0  0  0  0
 65 88  1  0  0  0  0
 65 89  1  0  0  0  0
 66 67  1  0  0  0  0
 66 76  2  0  0  0  0
 67 68  1  0  0  0  0
 68 69  2  0  0  0  0
 68 74  1  0  0  0  0
 69 70  1  0  0  0  0
 69 71  1  0  0  0  0
 70 90  1  0  0  0  0
 70 91  1  0  0  0  0
 70 92  1  0  0  0  0
 71 72  2  0  0  0  0
 71 93  1  0  0  0  0
 72 73  1  0  0  0  0
 72 94  1  0  0  0  0
 73 74  2  0  0  0  0
 73 95  1  0  0  0  0
 74 75  1  0  0  0  0
 75 96  1  0  0  0  0
 75 97  1  0  0  0  0
 75 98  1  0  0  0  0
 77 78  2  0  0  0  0
 77 82  1  0  0  0  0
 78 79  1  0  0  0  0
 78 99  1  0  0  0  0
 79 80  2  0  0  0  0
 79100  1  0  0  0  0
 80 81  1  0  0  0  0
 80101  1  0  0  0  0
 81 82  2  0  0  0  0
 81102  1  0  0  0  0
 82103  1  0  0  0  0
M  END
>  <fileName>
/Users/dawn_mao/Desktop/PhD_research/chpt4_Ti_ureate/TM_catalyst_framework/src/TM_catalyst_framework/template/octahedral.sdf

$$$$
