
 OpenBabel11252510113D

127132  0  0  0  0  0  0  0  0999 V2000
   -0.5436    2.5832    0.8690 Ti  0  0  0  0  0  0  0  0  0  0  0  0
   -0.5220    4.7027    0.7659 N   0  0  0  0  0  0  0  0  0  0  0  0
   -1.0109    5.0611   -0.5810 C   0  0  0  0  0  0  0  0  0  0  0  0
    0.7210    5.4330    1.0166 C   0  0  0  0  0  0  0  0  0  0  0  0
   -1.9612    4.5368   -0.7951 H   0  0  0  0  0  0  0  0  0  0  0  0
   -1.1497    6.1564   -0.7035 H   0  0  0  0  0  0  0  0  0  0  0  0
   -1.1497    6.1564   -0.7035 H   0  0  0  0  0  0  0  0  0  0  0  0
    0.8254    5.5599    2.0992 H   0  0  0  0  0  0  0  0  0  0  0  0
    0.6584    6.4878    0.6725 H   0  0  0  0  0  0  0  0  0  0  0  0
    1.5859    4.9723    0.5071 H   0  0  0  0  0  0  0  0  0  0  0  0
   -0.7992    0.5102    0.4746 N   0  0  0  0  0  0  0  0  0  0  0  0
   -2.0969    0.2737   -0.1722 C   0  0  0  0  0  0  0  0  0  0  0  0
    0.2518   -0.1692   -0.2978 C   0  0  0  0  0  0  0  0  0  0  0  0
   -2.1578    0.8230   -1.1358 H   0  0  0  0  0  0  0  0  0  0  0  0
   -2.9246    0.6025    0.4820 H   0  0  0  0  0  0  0  0  0  0  0  0
   -2.2596   -0.8123   -0.3504 H   0  0  0  0  0  0  0  0  0  0  0  0
    0.2942    0.2005   -1.3431 H   0  0  0  0  0  0  0  0  0  0  0  0
    0.0466   -1.2591   -0.3482 H   0  0  0  0  0  0  0  0  0  0  0  0
    1.2322   -0.0548    0.2013 H   0  0  0  0  0  0  0  0  0  0  0  0
   -4.0224   -0.7238    4.5052 C   0  0  0  0  0  0  0  0  0  0  0  0
   -2.6940    0.0407    4.1882 C   0  0  1  0  0  0  0  0  0  0  0  0
   -1.8480   -0.9479    3.3054 C   0  0  0  0  0  0  0  0  0  0  0  0
   -2.4161   -2.0428    2.5760 C   0  0  0  0  0  0  0  0  0  0  0  0
   -1.6172   -2.9609    1.8834 C   0  0  0  0  0  0  0  0  0  0  0  0
   -0.2393   -2.8227    1.8840 C   0  0  0  0  0  0  0  0  0  0  0  0
    0.3376   -1.7767    2.5845 C   0  0  0  0  0  0  0  0  0  0  0  0
   -0.4490   -0.8648    3.3012 C   0  0  0  0  0  0  0  0  0  0  0  0
   -2.9619    1.4092    3.6060 N   0  0  0  0  0  0  0  0  0  0  0  0
   -2.1414    1.9733    2.6175 C   0  0  0  0  0  0  0  0  0  0  0  0
   -2.4774    2.8431    1.5695 N   0  0  0  0  0  0  0  0  0  0  0  0
   -3.4555    3.8937    1.9157 C   0  0  0  0  0  0  0  0  0  0  0  0
   -4.7622    3.9142    1.3224 C   0  0  0  0  0  0  0  0  0  0  0  0
   -5.7931    4.7050    1.8885 C   0  0  0  0  0  0  0  0  0  0  0  0
   -5.5683    5.5159    2.9785 C   0  0  0  0  0  0  0  0  0  0  0  0
   -4.2881    5.6591    3.4549 C   0  0  0  0  0  0  0  0  0  0  0  0
   -3.2188    4.8994    2.9347 C   0  0  0  0  0  0  0  0  0  0  0  0
   -1.8349    5.3455    3.3456 C   0  0  0  0  0  0  0  0  0  0  0  0
   -1.6481    6.7219    2.6481 C   0  0  0  0  0  0  0  0  0  0  0  0
   -1.5452    5.5493    4.8338 C   0  0  0  0  0  0  0  0  0  0  0  0
   -5.0535    3.2491   -0.0065 C   0  0  0  0  0  0  0  0  0  0  0  0
   -6.3299    2.3958   -0.0350 C   0  0  0  0  0  0  0  0  0  0  0  0
   -5.1798    4.4056   -1.0265 C   0  0  0  0  0  0  0  0  0  0  0  0
   -0.9138    1.7339    2.5548 O   0  0  0  0  0  0  0  0  0  0  0  0
   -4.1785    2.1028    4.0235 C   0  0  0  0  0  0  0  0  0  0  0  0
   -3.8092   -1.7591    4.8506 H   0  0  0  0  0  0  0  0  0  0  0  0
   -4.6722   -0.7673    3.6006 H   0  0  0  0  0  0  0  0  0  0  0  0
   -4.6202   -0.3098    5.3341 H   0  0  0  0  0  0  0  0  0  0  0  0
   -2.1979    0.1403    5.1766 H   0  0  0  0  0  0  0  0  0  0  0  0
   -3.4754   -2.2320    2.5324 H   0  0  0  0  0  0  0  0  0  0  0  0
   -2.0657   -3.7890    1.3486 H   0  0  0  0  0  0  0  0  0  0  0  0
    0.3874   -3.5267    1.3488 H   0  0  0  0  0  0  0  0  0  0  0  0
    1.4018   -1.6972    2.5672 H   0  0  0  0  0  0  0  0  0  0  0  0
    0.0317   -0.0996    3.8682 H   0  0  0  0  0  0  0  0  0  0  0  0
   -6.7911    4.7198    1.4756 H   0  0  0  0  0  0  0  0  0  0  0  0
   -6.3724    6.1076    3.4002 H   0  0  0  0  0  0  0  0  0  0  0  0
   -4.1324    6.3955    4.2309 H   0  0  0  0  0  0  0  0  0  0  0  0
   -1.1067    4.6052    2.9911 H   0  0  0  0  0  0  0  0  0  0  0  0
   -1.8997    6.6587    1.5660 H   0  0  0  0  0  0  0  0  0  0  0  0
   -2.3087    7.5010    3.0835 H   0  0  0  0  0  0  0  0  0  0  0  0
   -1.8997    6.6587    1.5660 H   0  0  0  0  0  0  0  0  0  0  0  0
   -2.1804    6.3470    5.2728 H   0  0  0  0  0  0  0  0  0  0  0  0
   -0.4919    5.9004    4.9332 H   0  0  0  0  0  0  0  0  0  0  0  0
   -1.6666    4.6105    5.4031 H   0  0  0  0  0  0  0  0  0  0  0  0
   -4.1930    2.6263   -0.3226 H   0  0  0  0  0  0  0  0  0  0  0  0
   -7.2360    2.9952    0.1975 H   0  0  0  0  0  0  0  0  0  0  0  0
   -6.2577    1.5543    0.6799 H   0  0  0  0  0  0  0  0  0  0  0  0
   -6.4748    1.9918   -1.0604 H   0  0  0  0  0  0  0  0  0  0  0  0
   -6.0270    5.0841   -0.7752 H   0  0  0  0  0  0  0  0  0  0  0  0
   -5.3327    4.0304   -2.0565 H   0  0  0  0  0  0  0  0  0  0  0  0
   -4.2569    5.0277   -1.0156 H   0  0  0  0  0  0  0  0  0  0  0  0
   -4.6973    1.6516    4.8764 H   0  0  0  0  0  0  0  0  0  0  0  0
   -4.9114    2.1664    3.1976 H   0  0  0  0  0  0  0  0  0  0  0  0
   -3.9037    3.0782    4.4616 H   0  0  0  0  0  0  0  0  0  0  0  0
    0.5011    2.5817   -3.6092 C   0  0  0  0  0  0  0  0  0  0  0  0
    1.9610    2.3575   -3.1799 C   0  0  1  0  0  0  0  0  0  0  0  0
    2.8662    3.3454   -3.8949 C   0  0  0  0  0  0  0  0  0  0  0  0
    3.8398    2.8751   -4.7982 C   0  0  0  0  0  0  0  0  0  0  0  0
    4.7137    3.7663   -5.4236 C   0  0  0  0  0  0  0  0  0  0  0  0
    4.6238    5.1340   -5.1581 C   0  0  0  0  0  0  0  0  0  0  0  0
    3.6587    5.6121   -4.2668 C   0  0  0  0  0  0  0  0  0  0  0  0
    2.7832    4.7234   -3.6343 C   0  0  0  0  0  0  0  0  0  0  0  0
    2.2380    2.3914   -1.7258 N   0  0  0  0  0  0  0  0  0  0  0  0
    1.2977    2.5490   -0.7316 C   0  0  0  0  0  0  0  0  0  0  0  0
    1.4824    2.4352    0.6588 N   0  0  0  0  0  0  0  0  0  0  0  0
    2.6887    2.1848    1.5065 C   0  0  0  0  0  0  0  0  0  0  0  0
    3.2305    3.4331    1.9833 C   0  0  0  0  0  0  0  0  0  0  0  0
    2.4879    4.1107    2.9758 C   0  0  0  0  0  0  0  0  0  0  0  0
    1.5430    3.4309    3.7322 C   0  0  0  0  0  0  0  0  0  0  0  0
    1.5659    2.0472    3.6559 C   0  0  0  0  0  0  0  0  0  0  0  0
    2.3235    1.4054    2.6446 C   0  0  0  0  0  0  0  0  0  0  0  0
    3.4283    0.4798    3.2028 C   0  0  0  0  0  0  0  0  0  0  0  0
    3.1006   -0.3306    4.4785 C   0  0  0  0  0  0  0  0  0  0  0  0
    4.0332   -0.4290    2.1182 C   0  0  0  0  0  0  0  0  0  0  0  0
    4.6885    3.9531    1.7904 C   0  0  0  0  0  0  0  0  0  0  0  0
    5.3299    4.2985    3.1701 C   0  0  0  0  0  0  0  0  0  0  0  0
    5.7097    2.9631    1.1730 C   0  0  0  0  0  0  0  0  0  0  0  0
    0.0713    2.7349   -0.9437 O   0  0  0  0  0  0  0  0  0  0  0  0
    3.6043    2.1838   -1.3393 C   0  0  0  0  0  0  0  0  0  0  0  0
    0.4258    2.5045   -4.7156 H   0  0  0  0  0  0  0  0  0  0  0  0
    0.1393    3.5870   -3.3087 H   0  0  0  0  0  0  0  0  0  0  0  0
   -0.1578    1.7948   -3.1872 H   0  0  0  0  0  0  0  0  0  0  0  0
    2.2186    1.3318   -3.5314 H   0  0  0  0  0  0  0  0  0  0  0  0
    3.9343    1.8160   -5.0072 H   0  0  0  0  0  0  0  0  0  0  0  0
    5.4654    3.3941   -6.1084 H   0  0  0  0  0  0  0  0  0  0  0  0
    5.3057    5.8220   -5.6402 H   0  0  0  0  0  0  0  0  0  0  0  0
    3.5945    6.6717   -4.0592 H   0  0  0  0  0  0  0  0  0  0  0  0
    2.0506    5.1046   -2.9345 H   0  0  0  0  0  0  0  0  0  0  0  0
    2.7271    5.1143    3.2982 H   0  0  0  0  0  0  0  0  0  0  0  0
    1.0436    3.9281    4.5538 H   0  0  0  0  0  0  0  0  0  0  0  0
    1.1943    1.5543    4.5393 H   0  0  0  0  0  0  0  0  0  0  0  0
    4.2515    1.1561    3.5248 H   0  0  0  0  0  0  0  0  0  0  0  0
    2.2820   -1.0508    4.3556 H   0  0  0  0  0  0  0  0  0  0  0  0
    2.8475    0.3385    5.3256 H   0  0  0  0  0  0  0  0  0  0  0  0
    4.0003   -0.8979    4.7996 H   0  0  0  0  0  0  0  0  0  0  0  0
    4.4249    0.1721    1.2746 H   0  0  0  0  0  0  0  0  0  0  0  0
    3.2999   -1.1453    1.7108 H   0  0  0  0  0  0  0  0  0  0  0  0
    4.8929   -0.9959    2.5357 H   0  0  0  0  0  0  0  0  0  0  0  0
    4.6569    4.8887    1.1917 H   0  0  0  0  0  0  0  0  0  0  0  0
    5.3735    3.3921    3.8149 H   0  0  0  0  0  0  0  0  0  0  0  0
    4.7995    5.0911    3.7284 H   0  0  0  0  0  0  0  0  0  0  0  0
    6.3641    4.6844    3.0442 H   0  0  0  0  0  0  0  0  0  0  0  0
    5.7823    2.0413    1.7828 H   0  0  0  0  0  0  0  0  0  0  0  0
    6.7161    3.4369    1.1552 H   0  0  0  0  0  0  0  0  0  0  0  0
    5.5679    2.6658    0.1390 H   0  0  0  0  0  0  0  0  0  0  0  0
    3.9021    3.1348   -0.8689 H   0  0  0  0  0  0  0  0  0  0  0  0
    4.2818    2.0018   -2.1989 H   0  0  0  0  0  0  0  0  0  0  0  0
    3.6939    1.2957   -0.6827 H   0  0  0  0  0  0  0  0  0  0  0  0
  1  2  1  0  0  0  0
  1 11  1  0  0  0  0
  1 43  1  0  0  0  0
  1 30  1  0  0  0  0
  1 97  1  0  0  0  0
  1 84  1  0  0  0  0
  2  3  1  0  0  0  0
  2  4  1  0  0  0  0
  3  5  1  0  0  0  0
  3  6  1  0  0  0  0
  3  7  1  0  0  0  0
  4  8  1  0  0  0  0
  4  9  1  0  0  0  0
  4 10  1  0  0  0  0
 11 12  1  0  0  0  0
 11 13  1  0  0  0  0
 12 14  1  0  0  0  0
 12 15  1  0  0  0  0
 12 16  1  0  0  0  0
 13 17  1  0  0  0  0
 13 18  1  0  0  0  0
 13 19  1  0  0  0  0
 20 21  1  0  0  0  0
 20 45  1  0  0  0  0
 20 46  1  0  0  0  0
 20 47  1  0  0  0  0
 21 22  1  0  0  0  0
 21 28  1  0  0  0  0
 21 48  1  1  0  0  0
 22 23  2  0  0  0  0
 22 27  1  0  0  0  0
 23 24  1  0  0  0  0
 23 49  1  0  0  0  0
 24 25  2  0  0  0  0
 24 50  1  0  0  0  0
 25 26  1  0  0  0  0
 25 51  1  0  0  0  0
 26 27  2  0  0  0  0
 26 52  1  0  0  0  0
 27 53  1  0  0  0  0
 28 29  1  0  0  0  0
 28 44  1  0  0  0  0
 29 30  1  0  0  0  0
 29 43  2  0  0  0  0
 30 31  1  0  0  0  0
 31 32  2  0  0  0  0
 31 36  1  0  0  0  0
 32 33  1  0  0  0  0
 32 40  1  0  0  0  0
 33 34  2  0  0  0  0
 33 54  1  0  0  0  0
 34 35  1  0  0  0  0
 34 55  1  0  0  0  0
 35 36  2  0  0  0  0
 35 56  1  0  0  0  0
 36 37  1  0  0  0  0
 37 38  1  0  0  0  0
 37 39  1  0  0  0  0
 37 57  1  0  0  0  0
 38 58  1  0  0  0  0
 38 59  1  0  0  0  0
 38 60  1  0  0  0  0
 39 61  1  0  0  0  0
 39 62  1  0  0  0  0
 39 63  1  0  0  0  0
 40 41  1  0  0  0  0
 40 42  1  0  0  0  0
 40 64  1  0  0  0  0
 41 65  1  0  0  0  0
 41 66  1  0  0  0  0
 41 67  1  0  0  0  0
 42 68  1  0  0  0  0
 42 69  1  0  0  0  0
 42 70  1  0  0  0  0
 44 71  1  0  0  0  0
 44 72  1  0  0  0  0
 44 73  1  0  0  0  0
 74 75  1  0  0  0  0
 74 99  1  0  0  0  0
 74100  1  0  0  0  0
 74101  1  0  0  0  0
 75 76  1  0  0  0  0
 75 82  1  0  0  0  0
 75102  1  6  0  0  0
 76 77  2  0  0  0  0
 76 81  1  0  0  0  0
 77 78  1  0  0  0  0
 77103  1  0  0  0  0
 78 79  2  0  0  0  0
 78104  1  0  0  0  0
 79 80  1  0  0  0  0
 79105  1  0  0  0  0
 80 81  2  0  0  0  0
 80106  1  0  0  0  0
 81107  1  0  0  0  0
 82 83  1  0  0  0  0
 82 98  1  0  0  0  0
 83 84  1  0  0  0  0
 83 97  2  0  0  0  0
 84 85  1  0  0  0  0
 85 86  2  0  0  0  0
 85 90  1  0  0  0  0
 86 87  1  0  0  0  0
 86 94  1  0  0  0  0
 87 88  2  0  0  0  0
 87108  1  0  0  0  0
 88 89  1  0  0  0  0
 88109  1  0  0  0  0
 89 90  2  0  0  0  0
 89110  1  0  0  0  0
 90 91  1  0  0  0  0
 91 92  1  0  0  0  0
 91 93  1  0  0  0  0
 91111  1  0  0  0  0
 92112  1  0  0  0  0
 92113  1  0  0  0  0
 92114  1  0  0  0  0
 93115  1  0  0  0  0
 93116  1  0  0  0  0
 93117  1  0  0  0  0
 94 95  1  0  0  0  0
 94 96  1  0  0  0  0
 94118  1  0  0  0  0
 95119  1  0  0  0  0
 95120  1  0  0  0  0
 95121  1  0  0  0  0
 96122  1  0  0  0  0
 96123  1  0  0  0  0
 96124  1  0  0  0  0
 98125  1  0  0  0  0
 98126  1  0  0  0  0
 98127  1  0  0  0  0
M  END
>  <fileName>
/Users/dawn_mao/Desktop/PhD_research/chpt4_Ti_ureate/TM_catalyst_framework/src/TM_catalyst_framework/template/octahedral.sdf

$$$$
