
 OpenBabel12172512553D

127132  0  0  0  0  0  0  0  0999 V2000
    0.0900   -0.0121   -0.0468 Ti  0  0  0  0  0  0  0  0  0  0  0  0
    0.0673    0.2729    2.0733 N   0  0  0  0  0  0  0  0  0  0  0  0
   -1.1082    0.8772    2.7192 C   0  0  0  0  0  0  0  0  0  0  0  0
    1.3348    0.5411    2.8045 C   0  0  0  0  0  0  0  0  0  0  0  0
   -1.9841    0.2539    2.5293 H   0  0  0  0  0  0  0  0  0  0  0  0
   -1.3215    1.9009    2.3645 H   0  0  0  0  0  0  0  0  0  0  0  0
   -0.9789    0.9240    3.8222 H   0  0  0  0  0  0  0  0  0  0  0  0
    2.2007    0.5454    2.1369 H   0  0  0  0  0  0  0  0  0  0  0  0
    1.2900    1.4878    3.3815 H   0  0  0  0  0  0  0  0  0  0  0  0
    1.5829   -0.2512    3.5333 H   0  0  0  0  0  0  0  0  0  0  0  0
    0.1090   -0.2695   -2.1588 N   0  0  0  0  0  0  0  0  0  0  0  0
    1.1571    0.3909   -2.9479 C   0  0  0  0  0  0  0  0  0  0  0  0
   -1.1963   -0.3122   -2.8603 C   0  0  0  0  0  0  0  0  0  0  0  0
    0.9403    1.4374   -3.1684 H   0  0  0  0  0  0  0  0  0  0  0  0
    1.2176   -0.0376   -3.9636 H   0  0  0  0  0  0  0  0  0  0  0  0
    2.1386    0.2545   -2.4543 H   0  0  0  0  0  0  0  0  0  0  0  0
   -1.0758   -0.6013   -3.9236 H   0  0  0  0  0  0  0  0  0  0  0  0
   -1.7439    0.6365   -2.8486 H   0  0  0  0  0  0  0  0  0  0  0  0
   -1.8750   -1.0383   -2.3784 H   0  0  0  0  0  0  0  0  0  0  0  0
    3.6620   -5.7379    2.5707 C   0  0  0  0  0  0  0  0  0  0  0  0
    2.4929   -5.4404    1.6239 C   0  0  0  0  0  0  0  0  0  0  0  0
    2.2513   -6.6922    0.7375 C   0  0  0  0  0  0  0  0  0  0  0  0
    1.2915   -5.0373    2.4720 C   0  0  0  0  0  0  0  0  0  0  0  0
    0.6322   -6.0743    3.1668 C   0  0  0  0  0  0  0  0  0  0  0  0
   -0.3814   -5.8263    4.0602 C   0  0  0  0  0  0  0  0  0  0  0  0
   -0.7349   -4.5363    4.3477 C   0  0  0  0  0  0  0  0  0  0  0  0
   -0.1264   -3.4386    3.7133 C   0  0  0  0  0  0  0  0  0  0  0  0
   -0.5887   -2.0982    4.2807 C   0  0  0  0  0  0  0  0  0  0  0  0
   -0.0861   -1.9163    5.7278 C   0  0  0  0  0  0  0  0  0  0  0  0
   -2.1236   -1.8634    4.2724 C   0  0  0  0  0  0  0  0  0  0  0  0
    0.8954   -3.6641    2.6719 C   0  0  0  0  0  0  0  0  0  0  0  0
    1.6113   -2.5852    1.9659 N   0  0  0  0  0  0  0  0  0  0  0  0
    1.3351   -2.0257    0.7917 C   0  0  0  0  0  0  0  0  0  0  0  0
    1.8182   -0.7854    0.3554 O   0  0  0  0  0  0  0  0  0  0  0  0
    0.0905   -2.1137    0.0891 N   0  3  0  0  0  0  0  0  0  0  0  0
   -1.1208   -2.4795    0.7881 C   0  0  0  0  0  0  0  0  0  0  0  0
    0.1436   -2.9362   -1.1920 C   0  0  2  0  0  0  0  0  0  0  0  0
    0.1347   -4.4420   -0.9479 C   0  0  0  0  0  0  0  0  0  0  0  0
    1.3654   -2.7394   -2.1419 C   0  0  0  0  0  0  0  0  0  0  0  0
    1.1308   -2.5615   -3.5259 C   0  0  0  0  0  0  0  0  0  0  0  0
    2.1866   -2.4108   -4.4332 C   0  0  0  0  0  0  0  0  0  0  0  0
    3.5040   -2.4601   -3.9876 C   0  0  0  0  0  0  0  0  0  0  0  0
    3.7684   -2.6863   -2.6391 C   0  0  0  0  0  0  0  0  0  0  0  0
    2.7173   -2.8379   -1.7270 C   0  0  0  0  0  0  0  0  0  0  0  0
    3.4139   -6.5853    3.2478 H   0  0  0  0  0  0  0  0  0  0  0  0
    3.8846   -4.8458    3.1950 H   0  0  0  0  0  0  0  0  0  0  0  0
    4.5715   -6.0012    1.9927 H   0  0  0  0  0  0  0  0  0  0  0  0
    2.8047   -4.5888    0.9908 H   0  0  0  0  0  0  0  0  0  0  0  0
    1.3530   -6.6309    0.1001 H   0  0  0  0  0  0  0  0  0  0  0  0
    3.1323   -6.8604    0.0853 H   0  0  0  0  0  0  0  0  0  0  0  0
    2.1214   -7.6102    1.3437 H   0  0  0  0  0  0  0  0  0  0  0  0
    0.9070   -7.1078    3.0418 H   0  0  0  0  0  0  0  0  0  0  0  0
   -0.8699   -6.6422    4.5773 H   0  0  0  0  0  0  0  0  0  0  0  0
   -1.4927   -4.4029    5.1079 H   0  0  0  0  0  0  0  0  0  0  0  0
   -0.1322   -1.3444    3.6956 H   0  0  0  0  0  0  0  0  0  0  0  0
   -0.3456   -0.9024    6.1055 H   0  0  0  0  0  0  0  0  0  0  0  0
   -0.5488   -2.6586    6.4137 H   0  0  0  0  0  0  0  0  0  0  0  0
    1.0171   -2.0277    5.7766 H   0  0  0  0  0  0  0  0  0  0  0  0
   -2.6662   -2.5707    4.9277 H   0  0  0  0  0  0  0  0  0  0  0  0
   -2.3510   -0.8476    4.6648 H   0  0  0  0  0  0  0  0  0  0  0  0
   -2.5709   -1.9408    3.2681 H   0  0  0  0  0  0  0  0  0  0  0  0
   -1.1279   -3.5132    1.1711 H   0  0  0  0  0  0  0  0  0  0  0  0
   -1.9677   -2.3680    0.1149 H   0  0  0  0  0  0  0  0  0  0  0  0
   -1.2578   -1.7956    1.6241 H   0  0  0  0  0  0  0  0  0  0  0  0
   -0.7773   -2.7667   -1.7778 H   0  0  0  0  0  0  0  0  0  0  0  0
    0.1779   -4.9935   -1.9144 H   0  0  0  0  0  0  0  0  0  0  0  0
   -0.7675   -4.8181   -0.4335 H   0  0  0  0  0  0  0  0  0  0  0  0
    1.0328   -4.6515   -0.3763 H   0  0  0  0  0  0  0  0  0  0  0  0
    0.1229   -2.5290   -3.9117 H   0  0  0  0  0  0  0  0  0  0  0  0
    1.9796   -2.2482   -5.4838 H   0  0  0  0  0  0  0  0  0  0  0  0
    4.3197   -2.3387   -4.6898 H   0  0  0  0  0  0  0  0  0  0  0  0
    4.7942   -2.7507   -2.2989 H   0  0  0  0  0  0  0  0  0  0  0  0
    2.9900   -3.0353   -0.7073 H   0  0  0  0  0  0  0  0  0  0  0  0
   -4.3795   -1.4823    0.3158 C   0  0  0  0  0  0  0  0  0  0  0  0
   -4.4756   -0.0035    0.7448 C   0  0  0  0  0  0  0  0  0  0  0  0
   -5.4857    0.1060    1.8996 C   0  0  0  0  0  0  0  0  0  0  0  0
   -4.8504    0.8613   -0.4505 C   0  0  0  0  0  0  0  0  0  0  0  0
   -6.0904    0.5094   -1.0378 C   0  0  0  0  0  0  0  0  0  0  0  0
   -6.5942    1.1637   -2.1354 C   0  0  0  0  0  0  0  0  0  0  0  0
   -5.8929    2.2072   -2.6883 C   0  0  0  0  0  0  0  0  0  0  0  0
   -4.6532    2.6213   -2.1631 C   0  0  0  0  0  0  0  0  0  0  0  0
   -3.9509    3.7701   -2.8752 C   0  0  0  0  0  0  0  0  0  0  0  0
   -4.7945    5.0449   -2.7735 C   0  0  0  0  0  0  0  0  0  0  0  0
   -3.6531    3.4077   -4.3398 C   0  0  0  0  0  0  0  0  0  0  0  0
   -4.0769    1.9621   -1.0285 C   0  0  0  0  0  0  0  0  0  0  0  0
   -2.7491    2.4462   -0.6401 N   0  0  0  0  0  0  0  0  0  0  0  0
   -1.7077    1.7255   -0.3175 C   0  0  0  0  0  0  0  0  0  0  0  0
   -1.7682    0.3658   -0.2905 O   0  0  0  0  0  0  0  0  0  0  0  0
   -0.2440    2.0563   -0.3628 N   0  3  0  0  0  0  0  0  0  0  0  0
   -0.3439    2.8589   -1.6240 C   0  0  0  0  0  0  0  0  0  0  0  0
    0.6525    2.8666    0.5465 C   0  0  2  0  0  0  0  0  0  0  0  0
    0.3353    4.3691    0.7060 C   0  0  0  0  0  0  0  0  0  0  0  0
    2.1989    2.6732    0.2953 C   0  0  0  0  0  0  0  0  0  0  0  0
    2.8163    2.4618   -0.9680 C   0  0  0  0  0  0  0  0  0  0  0  0
    4.1889    2.2498   -1.1086 C   0  0  0  0  0  0  0  0  0  0  0  0
    5.0118    2.2393    0.0047 C   0  0  0  0  0  0  0  0  0  0  0  0
    4.4629    2.4765    1.2603 C   0  0  0  0  0  0  0  0  0  0  0  0
    3.0855    2.7111    1.4020 C   0  0  0  0  0  0  0  0  0  0  0  0
   -5.3625   -1.9147    0.0375 H   0  0  0  0  0  0  0  0  0  0  0  0
   -3.9884   -2.1059    1.1480 H   0  0  0  0  0  0  0  0  0  0  0  0
   -3.7453   -1.5672   -0.5877 H   0  0  0  0  0  0  0  0  0  0  0  0
   -3.5263    0.3383    1.1405 H   0  0  0  0  0  0  0  0  0  0  0  0
   -6.4917   -0.2620    1.6035 H   0  0  0  0  0  0  0  0  0  0  0  0
   -5.5757    1.1578    2.2362 H   0  0  0  0  0  0  0  0  0  0  0  0
   -5.1475   -0.5156    2.7577 H   0  0  0  0  0  0  0  0  0  0  0  0
   -6.6933   -0.3024   -0.6531 H   0  0  0  0  0  0  0  0  0  0  0  0
   -7.5401    0.8530   -2.5628 H   0  0  0  0  0  0  0  0  0  0  0  0
   -6.3272    2.6891   -3.5530 H   0  0  0  0  0  0  0  0  0  0  0  0
   -2.9807    4.0007   -2.4043 H   0  0  0  0  0  0  0  0  0  0  0  0
   -5.7845    4.9205   -3.2601 H   0  0  0  0  0  0  0  0  0  0  0  0
   -4.2672    5.8911   -3.2590 H   0  0  0  0  0  0  0  0  0  0  0  0
   -4.9556    5.2959   -1.7026 H   0  0  0  0  0  0  0  0  0  0  0  0
   -3.1060    4.2368   -4.8343 H   0  0  0  0  0  0  0  0  0  0  0  0
   -3.0209    2.4944   -4.3844 H   0  0  0  0  0  0  0  0  0  0  0  0
   -4.5826    3.2192   -4.9171 H   0  0  0  0  0  0  0  0  0  0  0  0
   -0.9249    3.7949   -1.4516 H   0  0  0  0  0  0  0  0  0  0  0  0
    0.5715    3.3260   -1.9802 H   0  0  0  0  0  0  0  0  0  0  0  0
   -0.8412    2.3971   -2.4835 H   0  0  0  0  0  0  0  0  0  0  0  0
    0.4982    2.5362    1.5588 H   0  0  0  0  0  0  0  0  0  0  0  0
    0.5552    4.9456   -0.2152 H   0  0  0  0  0  0  0  0  0  0  0  0
    0.9795    4.8000    1.5059 H   0  0  0  0  0  0  0  0  0  0  0  0
   -0.7233    4.5114    1.0065 H   0  0  0  0  0  0  0  0  0  0  0  0
    2.3118    2.4400   -1.8887 H   0  0  0  0  0  0  0  0  0  0  0  0
    4.6115    2.0834   -2.0937 H   0  0  0  0  0  0  0  0  0  0  0  0
    6.0732    2.0554   -0.1118 H   0  0  0  0  0  0  0  0  0  0  0  0
    5.1094    2.4725    2.1276 H   0  0  0  0  0  0  0  0  0  0  0  0
    2.7133    2.8942    2.3970 H   0  0  0  0  0  0  0  0  0  0  0  0
  1  2  1  0  0  0  0
  1 11  1  0  0  0  0
  1 34  1  0  0  0  0
  1 35  1  0  0  0  0
  1 88  1  0  0  0  0
  1 89  1  0  0  0  0
  2  3  1  0  0  0  0
  2  4  1  0  0  0  0
  3  5  1  0  0  0  0
  3  6  1  0  0  0  0
  3  7  1  0  0  0  0
  4  8  1  0  0  0  0
  4  9  1  0  0  0  0
  4 10  1  0  0  0  0
 11 12  1  0  0  0  0
 11 13  1  0  0  0  0
 12 14  1  0  0  0  0
 12 15  1  0  0  0  0
 12 16  1  0  0  0  0
 13 17  1  0  0  0  0
 13 18  1  0  0  0  0
 13 19  1  0  0  0  0
 20 21  1  0  0  0  0
 20 45  1  0  0  0  0
 20 46  1  0  0  0  0
 20 47  1  0  0  0  0
 21 22  1  0  0  0  0
 21 23  1  0  0  0  0
 21 48  1  0  0  0  0
 22 49  1  0  0  0  0
 22 50  1  0  0  0  0
 22 51  1  0  0  0  0
 23 24  2  0  0  0  0
 24 25  1  0  0  0  0
 24 52  1  0  0  0  0
 25 26  2  0  0  0  0
 25 53  1  0  0  0  0
 26 27  1  0  0  0  0
 26 54  1  0  0  0  0
 27 28  1  0  0  0  0
 27 31  2  0  0  0  0
 28 29  1  0  0  0  0
 28 30  1  0  0  0  0
 28 55  1  0  0  0  0
 29 56  1  0  0  0  0
 29 57  1  0  0  0  0
 29 58  1  0  0  0  0
 30 59  1  0  0  0  0
 30 60  1  0  0  0  0
 30 61  1  0  0  0  0
 31 32  1  0  0  0  0
 31 23  1  0  0  0  0
 32 33  2  0  0  0  0
 33 34  1  0  0  0  0
 33 35  1  0  0  0  0
 35 36  1  0  0  0  0
 35 37  1  0  0  0  0
 36 62  1  0  0  0  0
 36 63  1  0  0  0  0
 36 64  1  0  0  0  0
 37 38  1  0  0  0  0
 37 39  1  0  0  0  0
 37 65  1  6  0  0  0
 38 66  1  0  0  0  0
 38 67  1  0  0  0  0
 38 68  1  0  0  0  0
 39 40  2  0  0  0  0
 40 41  1  0  0  0  0
 40 69  1  0  0  0  0
 41 42  2  0  0  0  0
 41 70  1  0  0  0  0
 42 43  1  0  0  0  0
 42 71  1  0  0  0  0
 43 44  2  0  0  0  0
 43 72  1  0  0  0  0
 44 39  1  0  0  0  0
 44 73  1  0  0  0  0
 74 75  1  0  0  0  0
 74 99  1  0  0  0  0
 74100  1  0  0  0  0
 74101  1  0  0  0  0
 75 76  1  0  0  0  0
 75 77  1  0  0  0  0
 75102  1  0  0  0  0
 76103  1  0  0  0  0
 76104  1  0  0  0  0
 76105  1  0  0  0  0
 77 78  2  0  0  0  0
 78 79  1  0  0  0  0
 78106  1  0  0  0  0
 79 80  2  0  0  0  0
 79107  1  0  0  0  0
 80 81  1  0  0  0  0
 80108  1  0  0  0  0
 81 82  1  0  0  0  0
 81 85  2  0  0  0  0
 82 83  1  0  0  0  0
 82 84  1  0  0  0  0
 82109  1  0  0  0  0
 83110  1  0  0  0  0
 83111  1  0  0  0  0
 83112  1  0  0  0  0
 84113  1  0  0  0  0
 84114  1  0  0  0  0
 84115  1  0  0  0  0
 85 86  1  0  0  0  0
 85 77  1  0  0  0  0
 86 87  2  0  0  0  0
 87 88  1  0  0  0  0
 87 89  1  0  0  0  0
 89 90  1  0  0  0  0
 89 91  1  0  0  0  0
 90116  1  0  0  0  0
 90117  1  0  0  0  0
 90118  1  0  0  0  0
 91 92  1  0  0  0  0
 91 93  1  0  0  0  0
 91119  1  1  0  0  0
 92120  1  0  0  0  0
 92121  1  0  0  0  0
 92122  1  0  0  0  0
 93 94  2  0  0  0  0
 94 95  1  0  0  0  0
 94123  1  0  0  0  0
 95 96  2  0  0  0  0
 95124  1  0  0  0  0
 96 97  1  0  0  0  0
 96125  1  0  0  0  0
 97 98  2  0  0  0  0
 97126  1  0  0  0  0
 98 93  1  0  0  0  0
 98127  1  0  0  0  0
M  CHG  2  35   1  89   1
M  END
$$$$
