
 OpenBabel12092515573D

127132  0  0  0  0  0  0  0  0999 V2000
   -0.5842    2.9939    0.8644 Ti  0  0  0  0  0  0  0  0  0  0  0  0
   -0.6820    5.0582    1.1964 N   0  0  0  0  0  0  0  0  0  0  0  0
   -1.2427    5.7612    0.0367 C   0  0  0  0  0  0  0  0  0  0  0  0
    0.6082    5.6526    1.5607 C   0  0  0  0  0  0  0  0  0  0  0  0
   -1.4633    6.8196    0.2900 H   0  0  0  0  0  0  0  0  0  0  0  0
   -2.1898    5.2684   -0.2654 H   0  0  0  0  0  0  0  0  0  0  0  0
   -0.5364    5.7614   -0.8183 H   0  0  0  0  0  0  0  0  0  0  0  0
    1.1177    5.0420    2.3285 H   0  0  0  0  0  0  0  0  0  0  0  0
    0.4634    6.6817    1.9528 H   0  0  0  0  0  0  0  0  0  0  0  0
    0.4634    6.6817    1.9528 H   0  0  0  0  0  0  0  0  0  0  0  0
   -0.6934    0.8848    0.4116 N   0  0  0  0  0  0  0  0  0  0  0  0
    0.2303   -0.1875    0.7862 C   0  0  0  0  0  0  0  0  0  0  0  0
   -2.0583    0.3241    0.3145 C   0  0  0  0  0  0  0  0  0  0  0  0
   -0.2150   -0.8969    1.4987 H   0  0  0  0  0  0  0  0  0  0  0  0
    1.2125    0.1801    1.1074 H   0  0  0  0  0  0  0  0  0  0  0  0
    0.3446   -0.8662   -0.0746 H   0  0  0  0  0  0  0  0  0  0  0  0
   -2.7438    1.0351   -0.1761 H   0  0  0  0  0  0  0  0  0  0  0  0
   -2.4720    0.0916    1.3160 H   0  0  0  0  0  0  0  0  0  0  0  0
   -2.0693   -0.6195   -0.2691 H   0  0  0  0  0  0  0  0  0  0  0  0
   -4.0336    0.5174    5.3950 C   0  0  0  0  0  0  0  0  0  0  0  0
   -2.7788    1.2796    4.8719 C   0  0  1  0  0  0  0  0  0  0  0  0
   -1.6103    0.2720    5.0170 C   0  0  0  0  0  0  0  0  0  0  0  0
   -0.8102   -0.1307    3.9511 C   0  0  0  0  0  0  0  0  0  0  0  0
    0.2430   -1.0488    4.1184 C   0  0  0  0  0  0  0  0  0  0  0  0
    0.4974   -1.6042    5.3652 C   0  0  0  0  0  0  0  0  0  0  0  0
   -0.2901   -1.2345    6.4508 C   0  0  0  0  0  0  0  0  0  0  0  0
   -1.3239   -0.3009    6.2852 C   0  0  0  0  0  0  0  0  0  0  0  0
   -3.0596    1.8559    3.5041 N   0  0  0  0  0  0  0  0  0  0  0  0
   -2.1359    2.4643    2.6637 C   0  0  0  0  0  0  0  0  0  0  0  0
   -0.8027    2.7777    2.9038 N   0  0  0  0  0  0  0  0  0  0  0  0
   -0.3830    3.6647    4.0225 C   0  0  0  0  0  0  0  0  0  0  0  0
    0.9384    3.5019    4.6587 C   0  0  0  0  0  0  0  0  0  0  0  0
    1.3406    4.3512    5.7088 C   0  0  0  0  0  0  0  0  0  0  0  0
    0.5611    5.3574    6.1775 C   0  0  0  0  0  0  0  0  0  0  0  0
   -0.6669    5.5699    5.6307 C   0  0  0  0  0  0  0  0  0  0  0  0
   -1.2076    4.7871    4.5731 C   0  0  0  0  0  0  0  0  0  0  0  0
   -2.6382    5.3430    4.2468 C   0  0  0  0  0  0  0  0  0  0  0  0
   -3.0103    5.6776    2.8121 C   0  0  0  0  0  0  0  0  0  0  0  0
   -3.7560    4.6732    5.0433 C   0  0  0  0  0  0  0  0  0  0  0  0
    2.0521    2.4804    4.4012 C   0  0  0  0  0  0  0  0  0  0  0  0
    2.0710    1.4492    5.5414 C   0  0  0  0  0  0  0  0  0  0  0  0
    2.0647    1.8343    3.0463 C   0  0  0  0  0  0  0  0  0  0  0  0
   -2.3745    2.6812    1.4355 O   0  0  0  0  0  0  0  0  0  0  0  0
   -4.4159    1.7029    2.9424 C   0  0  0  0  0  0  0  0  0  0  0  0
   -4.2245   -0.3875    4.7699 H   0  0  0  0  0  0  0  0  0  0  0  0
   -4.2245   -0.3875    4.7699 H   0  0  0  0  0  0  0  0  0  0  0  0
   -3.9667    0.1980    6.4526 H   0  0  0  0  0  0  0  0  0  0  0  0
   -2.5571    2.1166    5.5638 H   0  0  0  0  0  0  0  0  0  0  0  0
   -1.0004    0.2842    3.0009 H   0  0  0  0  0  0  0  0  0  0  0  0
    0.8815   -1.3326    3.2945 H   0  0  0  0  0  0  0  0  0  0  0  0
    1.3118   -2.3083    5.4868 H   0  0  0  0  0  0  0  0  0  0  0  0
   -0.0910   -1.6652    7.4232 H   0  0  0  0  0  0  0  0  0  0  0  0
   -1.9006   -0.0372    7.1586 H   0  0  0  0  0  0  0  0  0  0  0  0
    2.3071    4.2403    6.1920 H   0  0  0  0  0  0  0  0  0  0  0  0
    0.9151    5.9867    6.9856 H   0  0  0  0  0  0  0  0  0  0  0  0
   -1.2069    6.3924    6.0860 H   0  0  0  0  0  0  0  0  0  0  0  0
   -2.7048    6.3711    4.6742 H   0  0  0  0  0  0  0  0  0  0  0  0
   -2.2837    6.4171    2.4268 H   0  0  0  0  0  0  0  0  0  0  0  0
   -3.9985    6.1858    2.7860 H   0  0  0  0  0  0  0  0  0  0  0  0
   -3.0933    4.7988    2.1671 H   0  0  0  0  0  0  0  0  0  0  0  0
   -3.9698    3.6682    4.7099 H   0  0  0  0  0  0  0  0  0  0  0  0
   -4.6982    5.2539    4.9406 H   0  0  0  0  0  0  0  0  0  0  0  0
   -3.4901    4.6476    6.1223 H   0  0  0  0  0  0  0  0  0  0  0  0
    3.0371    3.0064    4.4274 H   0  0  0  0  0  0  0  0  0  0  0  0
    1.0932    0.9572    5.6031 H   0  0  0  0  0  0  0  0  0  0  0  0
    2.2416    1.9307    6.5273 H   0  0  0  0  0  0  0  0  0  0  0  0
    2.8715    0.6938    5.3946 H   0  0  0  0  0  0  0  0  0  0  0  0
    2.9237    1.1320    2.9649 H   0  0  0  0  0  0  0  0  0  0  0  0
    2.2198    2.6255    2.2973 H   0  0  0  0  0  0  0  0  0  0  0  0
    1.1323    1.2956    2.8908 H   0  0  0  0  0  0  0  0  0  0  0  0
   -4.5675    2.2378    1.9825 H   0  0  0  0  0  0  0  0  0  0  0  0
   -5.1732    2.1312    3.6340 H   0  0  0  0  0  0  0  0  0  0  0  0
   -4.6504    0.6374    2.7538 H   0  0  0  0  0  0  0  0  0  0  0  0
    4.0132    2.6732   -1.1184 C   0  0  0  0  0  0  0  0  0  0  0  0
    3.4365    4.0695   -1.3767 C   0  0  2  0  0  0  0  0  0  0  0  0
    3.7607    5.0849   -0.2782 C   0  0  0  0  0  0  0  0  0  0  0  0
    4.3555    4.7193    0.9524 C   0  0  0  0  0  0  0  0  0  0  0  0
    4.7457    5.6951    1.8746 C   0  0  0  0  0  0  0  0  0  0  0  0
    4.5548    7.0468    1.5897 C   0  0  0  0  0  0  0  0  0  0  0  0
    3.9583    7.4266    0.3872 C   0  0  0  0  0  0  0  0  0  0  0  0
    3.5603    6.4557   -0.5384 C   0  0  0  0  0  0  0  0  0  0  0  0
    2.0082    3.9998   -1.7402 N   0  0  0  0  0  0  0  0  0  0  0  0
    1.0303    3.5262   -0.8884 C   0  0  0  0  0  0  0  0  0  0  0  0
   -0.3346    3.2800   -1.1592 N   0  0  0  0  0  0  0  0  0  0  0  0
   -0.8839    2.4057   -2.2394 C   0  0  0  0  0  0  0  0  0  0  0  0
   -0.2115    1.1701   -2.5949 C   0  0  0  0  0  0  0  0  0  0  0  0
   -0.9806    0.0207   -2.8691 C   0  0  0  0  0  0  0  0  0  0  0  0
   -2.3568    0.0456   -2.8372 C   0  0  0  0  0  0  0  0  0  0  0  0
   -3.0081    1.2492   -2.7047 C   0  0  0  0  0  0  0  0  0  0  0  0
   -2.3030    2.4653   -2.5432 C   0  0  0  0  0  0  0  0  0  0  0  0
   -2.7241    3.3002   -3.8120 C   0  0  0  0  0  0  0  0  0  0  0  0
   -4.2283    3.5711   -4.0596 C   0  0  0  0  0  0  0  0  0  0  0  0
   -1.9523    4.5850   -4.0683 C   0  0  0  0  0  0  0  0  0  0  0  0
    1.2939    1.0142   -2.7999 C   0  0  0  0  0  0  0  0  0  0  0  0
    1.9931    0.0431   -1.8649 C   0  0  0  0  0  0  0  0  0  0  0  0
    1.5769    0.6152   -4.2584 C   0  0  0  0  0  0  0  0  0  0  0  0
    1.2380    3.3025    0.3311 O   0  0  0  0  0  0  0  0  0  0  0  0
    1.6384    4.5530   -3.0233 C   0  0  0  0  0  0  0  0  0  0  0  0
    3.5166    2.1776   -0.2598 H   0  0  0  0  0  0  0  0  0  0  0  0
    5.1037    2.7422   -0.9187 H   0  0  0  0  0  0  0  0  0  0  0  0
    3.9065    2.0584   -2.0296 H   0  0  0  0  0  0  0  0  0  0  0  0
    4.0143    4.4383   -2.2556 H   0  0  0  0  0  0  0  0  0  0  0  0
    4.5476    3.6873    1.2067 H   0  0  0  0  0  0  0  0  0  0  0  0
    5.2156    5.4019    2.8049 H   0  0  0  0  0  0  0  0  0  0  0  0
    4.8779    7.8001    2.2972 H   0  0  0  0  0  0  0  0  0  0  0  0
    3.8221    8.4772    0.1634 H   0  0  0  0  0  0  0  0  0  0  0  0
    3.1305    6.7826   -1.4743 H   0  0  0  0  0  0  0  0  0  0  0  0
   -0.5134   -0.9260   -3.0998 H   0  0  0  0  0  0  0  0  0  0  0  0
   -2.9261   -0.8544   -3.0360 H   0  0  0  0  0  0  0  0  0  0  0  0
   -4.0664    1.2094   -2.9003 H   0  0  0  0  0  0  0  0  0  0  0  0
   -2.4207    2.6666   -4.6869 H   0  0  0  0  0  0  0  0  0  0  0  0
   -4.6562    4.2306   -3.2843 H   0  0  0  0  0  0  0  0  0  0  0  0
   -4.8353    2.6518   -4.1624 H   0  0  0  0  0  0  0  0  0  0  0  0
   -4.3495    4.0572   -5.0560 H   0  0  0  0  0  0  0  0  0  0  0  0
   -2.0520    5.3038   -3.2327 H   0  0  0  0  0  0  0  0  0  0  0  0
   -2.2910    5.0630   -5.0146 H   0  0  0  0  0  0  0  0  0  0  0  0
   -0.9211    4.3027   -4.3063 H   0  0  0  0  0  0  0  0  0  0  0  0
    1.7792    1.9612   -2.7026 H   0  0  0  0  0  0  0  0  0  0  0  0
    1.5413   -0.9679   -1.9107 H   0  0  0  0  0  0  0  0  0  0  0  0
    1.9756    0.4784   -0.8604 H   0  0  0  0  0  0  0  0  0  0  0  0
    3.0646   -0.0574   -2.1264 H   0  0  0  0  0  0  0  0  0  0  0  0
    1.1124    1.3501   -4.9510 H   0  0  0  0  0  0  0  0  0  0  0  0
    1.1862   -0.3960   -4.4960 H   0  0  0  0  0  0  0  0  0  0  0  0
    2.6718    0.6101   -4.4452 H   0  0  0  0  0  0  0  0  0  0  0  0
    2.0288    5.5872   -3.1126 H   0  0  0  0  0  0  0  0  0  0  0  0
    0.5643    4.6798   -3.0608 H   0  0  0  0  0  0  0  0  0  0  0  0
    2.0328    3.9416   -3.8586 H   0  0  0  0  0  0  0  0  0  0  0  0
  1  2  1  0  0  0  0
  1 11  1  0  0  0  0
  1 30  1  0  0  0  0
  1 43  1  0  0  0  0
  1 84  1  0  0  0  0
  1 97  1  0  0  0  0
  2  3  1  0  0  0  0
  2  4  1  0  0  0  0
  3  5  1  0  0  0  0
  3  6  1  0  0  0  0
  3  7  1  0  0  0  0
  4  8  1  0  0  0  0
  4  9  1  0  0  0  0
  4 10  1  0  0  0  0
 11 12  1  0  0  0  0
 11 13  1  0  0  0  0
 12 14  1  0  0  0  0
 12 15  1  0  0  0  0
 12 16  1  0  0  0  0
 13 17  1  0  0  0  0
 13 18  1  0  0  0  0
 13 19  1  0  0  0  0
 20 21  1  0  0  0  0
 20 45  1  0  0  0  0
 20 46  1  0  0  0  0
 20 47  1  0  0  0  0
 21 22  1  0  0  0  0
 21 28  1  0  0  0  0
 21 48  1  1  0  0  0
 22 23  2  0  0  0  0
 22 27  1  0  0  0  0
 23 24  1  0  0  0  0
 23 49  1  0  0  0  0
 24 25  2  0  0  0  0
 24 50  1  0  0  0  0
 25 26  1  0  0  0  0
 25 51  1  0  0  0  0
 26 27  2  0  0  0  0
 26 52  1  0  0  0  0
 27 53  1  0  0  0  0
 28 29  1  0  0  0  0
 28 44  1  0  0  0  0
 29 30  1  0  0  0  0
 29 43  2  0  0  0  0
 30 31  1  0  0  0  0
 31 32  2  0  0  0  0
 31 36  1  0  0  0  0
 32 33  1  0  0  0  0
 32 40  1  0  0  0  0
 33 34  2  0  0  0  0
 33 54  1  0  0  0  0
 34 35  1  0  0  0  0
 34 55  1  0  0  0  0
 35 36  2  0  0  0  0
 35 56  1  0  0  0  0
 36 37  1  0  0  0  0
 37 38  1  0  0  0  0
 37 39  1  0  0  0  0
 37 57  1  0  0  0  0
 38 58  1  0  0  0  0
 38 59  1  0  0  0  0
 38 60  1  0  0  0  0
 39 61  1  0  0  0  0
 39 62  1  0  0  0  0
 39 63  1  0  0  0  0
 40 41  1  0  0  0  0
 40 42  1  0  0  0  0
 40 64  1  0  0  0  0
 41 65  1  0  0  0  0
 41 66  1  0  0  0  0
 41 67  1  0  0  0  0
 42 68  1  0  0  0  0
 42 69  1  0  0  0  0
 42 70  1  0  0  0  0
 44 71  1  0  0  0  0
 44 72  1  0  0  0  0
 44 73  1  0  0  0  0
 74 75  1  0  0  0  0
 74 99  1  0  0  0  0
 74100  1  0  0  0  0
 74101  1  0  0  0  0
 75 76  1  0  0  0  0
 75 82  1  0  0  0  0
 75102  1  6  0  0  0
 76 77  2  0  0  0  0
 76 81  1  0  0  0  0
 77 78  1  0  0  0  0
 77103  1  0  0  0  0
 78 79  2  0  0  0  0
 78104  1  0  0  0  0
 79 80  1  0  0  0  0
 79105  1  0  0  0  0
 80 81  2  0  0  0  0
 80106  1  0  0  0  0
 81107  1  0  0  0  0
 82 83  1  0  0  0  0
 82 98  1  0  0  0  0
 83 84  1  0  0  0  0
 83 97  2  0  0  0  0
 84 85  1  0  0  0  0
 85 86  2  0  0  0  0
 85 90  1  0  0  0  0
 86 87  1  0  0  0  0
 86 94  1  0  0  0  0
 87 88  2  0  0  0  0
 87108  1  0  0  0  0
 88 89  1  0  0  0  0
 88109  1  0  0  0  0
 89 90  2  0  0  0  0
 89110  1  0  0  0  0
 90 91  1  0  0  0  0
 91 92  1  0  0  0  0
 91 93  1  0  0  0  0
 91111  1  0  0  0  0
 92112  1  0  0  0  0
 92113  1  0  0  0  0
 92114  1  0  0  0  0
 93115  1  0  0  0  0
 93116  1  0  0  0  0
 93117  1  0  0  0  0
 94 95  1  0  0  0  0
 94 96  1  0  0  0  0
 94118  1  0  0  0  0
 95119  1  0  0  0  0
 95120  1  0  0  0  0
 95121  1  0  0  0  0
 96122  1  0  0  0  0
 96123  1  0  0  0  0
 96124  1  0  0  0  0
 98125  1  0  0  0  0
 98126  1  0  0  0  0
 98127  1  0  0  0  0
M  END
>  <fileName>
/Users/dawn_mao/Desktop/PhD_research/chpt4_Ti_ureate/TM_catalyst_framework/src/TM_catalyst_framework/template/octahedral.sdf

$$$$
