
 OpenBabel12092515573D

127132  0  0  0  0  0  0  0  0999 V2000
   -0.6795    3.1953    0.9710 Ta  0  0  0  0  0  0  0  0  0  0  0  0
   -0.4440    5.4393    1.2538 N   0  0  0  0  0  0  0  0  0  0  0  0
    0.9560    5.8912    1.2473 C   0  0  0  0  0  0  0  0  0  0  0  0
   -1.1423    6.0756    2.3513 C   0  0  0  0  0  0  0  0  0  0  0  0
    1.4227    5.7216    0.2613 H   0  0  0  0  0  0  0  0  0  0  0  0
    1.5307    5.3717    2.0427 H   0  0  0  0  0  0  0  0  0  0  0  0
    1.0175    6.9906    1.4086 H   0  0  0  0  0  0  0  0  0  0  0  0
   -2.0044    5.4901    2.5726 H   0  0  0  0  0  0  0  0  0  0  0  0
   -1.4837    7.0838    2.0395 H   0  0  0  0  0  0  0  0  0  0  0  0
   -0.4962    6.2006    3.2427 H   0  0  0  0  0  0  0  0  0  0  0  0
   -0.6845    0.9630    0.6652 N   0  0  0  0  0  0  0  0  0  0  0  0
    0.6110    0.4278    0.2579 C   0  0  0  0  0  0  0  0  0  0  0  0
   -1.7395    0.5696   -0.2835 C   0  0  0  0  0  0  0  0  0  0  0  0
    0.5416   -0.6497   -0.0050 H   0  0  0  0  0  0  0  0  0  0  0  0
    1.3535    0.4944    1.0561 H   0  0  0  0  0  0  0  0  0  0  0  0
    0.9821    0.9958   -0.5802 H   0  0  0  0  0  0  0  0  0  0  0  0
   -1.7901    1.2632   -1.1352 H   0  0  0  0  0  0  0  0  0  0  0  0
   -2.7217    0.5877    0.2025 H   0  0  0  0  0  0  0  0  0  0  0  0
   -1.6128   -0.4757   -0.6399 H   0  0  0  0  0  0  0  0  0  0  0  0
   -4.6727    0.7035    2.3951 C   0  0  0  0  0  0  0  0  0  0  0  0
   -3.5153    0.4097    3.3717 C   0  0  1  0  0  0  0  0  0  0  0  0
   -2.4397   -0.6201    2.9185 C   0  0  0  0  0  0  0  0  0  0  0  0
   -1.0872   -0.4826    3.3493 C   0  0  0  0  0  0  0  0  0  0  0  0
   -0.1018   -1.3998    3.0015 C   0  0  0  0  0  0  0  0  0  0  0  0
   -0.4244   -2.4925    2.2117 C   0  0  0  0  0  0  0  0  0  0  0  0
   -1.7410   -2.6708    1.7797 C   0  0  0  0  0  0  0  0  0  0  0  0
   -2.7456   -1.7518    2.1349 C   0  0  0  0  0  0  0  0  0  0  0  0
   -2.8208    1.6143    3.8576 N   0  0  0  0  0  0  0  0  0  0  0  0
   -2.1216    2.3778    2.9263 C   0  0  0  0  0  0  0  0  0  0  0  0
   -0.8573    2.9925    3.1335 N   0  0  0  0  0  0  0  0  0  0  0  0
   -0.4322    3.7510    4.3050 C   0  0  0  0  0  0  0  0  0  0  0  0
    0.9309    3.5969    4.8057 C   0  0  0  0  0  0  0  0  0  0  0  0
    1.3770    4.3705    5.8856 C   0  0  0  0  0  0  0  0  0  0  0  0
    0.5796    5.2926    6.4929 C   0  0  0  0  0  0  0  0  0  0  0  0
   -0.7239    5.4379    6.0990 C   0  0  0  0  0  0  0  0  0  0  0  0
   -1.3303    4.6719    5.0679 C   0  0  0  0  0  0  0  0  0  0  0  0
   -2.8741    5.0636    4.9771 C   0  0  0  0  0  0  0  0  0  0  0  0
   -3.9112    4.4629    3.9850 C   0  0  0  0  0  0  0  0  0  0  0  0
   -3.5720    4.8912    6.3674 C   0  0  0  0  0  0  0  0  0  0  0  0
    2.0274    2.6254    4.3506 C   0  0  0  0  0  0  0  0  0  0  0  0
    2.1892    1.4819    5.3683 C   0  0  0  0  0  0  0  0  0  0  0  0
    1.8580    2.0489    2.9879 C   0  0  0  0  0  0  0  0  0  0  0  0
   -2.4493    2.4520    1.6801 O   0  0  0  0  0  0  0  0  0  0  0  0
   -2.6016    1.6149    5.3050 C   0  0  0  0  0  0  0  0  0  0  0  0
   -5.2082   -0.2354    2.1443 H   0  0  0  0  0  0  0  0  0  0  0  0
   -4.3744    1.1696    1.4458 H   0  0  0  0  0  0  0  0  0  0  0  0
   -5.4027    1.3794    2.8858 H   0  0  0  0  0  0  0  0  0  0  0  0
   -4.0292   -0.0990    4.2196 H   0  0  0  0  0  0  0  0  0  0  0  0
   -0.7571    0.3295    3.9722 H   0  0  0  0  0  0  0  0  0  0  0  0
    0.9150   -1.2552    3.3511 H   0  0  0  0  0  0  0  0  0  0  0  0
    0.3494   -3.2008    1.9433 H   0  0  0  0  0  0  0  0  0  0  0  0
   -1.9800   -3.5308    1.1702 H   0  0  0  0  0  0  0  0  0  0  0  0
   -3.7503   -1.9330    1.7881 H   0  0  0  0  0  0  0  0  0  0  0  0
    2.3899    4.2736    6.2624 H   0  0  0  0  0  0  0  0  0  0  0  0
    0.9729    5.8934    7.3038 H   0  0  0  0  0  0  0  0  0  0  0  0
   -1.2659    6.1918    6.6480 H   0  0  0  0  0  0  0  0  0  0  0  0
   -2.8691    6.1533    4.7486 H   0  0  0  0  0  0  0  0  0  0  0  0
   -3.6858    4.4740    2.9128 H   0  0  0  0  0  0  0  0  0  0  0  0
   -4.8467    5.0606    4.0596 H   0  0  0  0  0  0  0  0  0  0  0  0
   -4.2299    3.4516    4.2689 H   0  0  0  0  0  0  0  0  0  0  0  0
   -3.0925    5.4140    7.2126 H   0  0  0  0  0  0  0  0  0  0  0  0
   -3.6309    3.8256    6.6542 H   0  0  0  0  0  0  0  0  0  0  0  0
   -4.6069    5.2956    6.3437 H   0  0  0  0  0  0  0  0  0  0  0  0
    2.9882    3.1900    4.2911 H   0  0  0  0  0  0  0  0  0  0  0  0
    1.2563    0.8800    5.4225 H   0  0  0  0  0  0  0  0  0  0  0  0
    2.4169    1.8719    6.3813 H   0  0  0  0  0  0  0  0  0  0  0  0
    3.0249    0.8125    5.0694 H   0  0  0  0  0  0  0  0  0  0  0  0
    0.9492    1.4330    2.9395 H   0  0  0  0  0  0  0  0  0  0  0  0
    2.7373    1.4249    2.7156 H   0  0  0  0  0  0  0  0  0  0  0  0
    1.8265    2.9105    2.3268 H   0  0  0  0  0  0  0  0  0  0  0  0
   -3.5786    1.7420    5.8151 H   0  0  0  0  0  0  0  0  0  0  0  0
   -1.9165    2.3740    5.6718 H   0  0  0  0  0  0  0  0  0  0  0  0
   -2.1983    0.6404    5.6490 H   0  0  0  0  0  0  0  0  0  0  0  0
    3.8164    3.3940   -0.0338 C   0  0  0  0  0  0  0  0  0  0  0  0
    3.4608    3.5556   -1.5280 C   0  0  1  0  0  0  0  0  0  0  0  0
    4.1231    2.3801   -2.2578 C   0  0  0  0  0  0  0  0  0  0  0  0
    3.6802    1.0593   -2.0526 C   0  0  0  0  0  0  0  0  0  0  0  0
    4.2938   -0.0226   -2.6836 C   0  0  0  0  0  0  0  0  0  0  0  0
    5.3863    0.1913   -3.5190 C   0  0  0  0  0  0  0  0  0  0  0  0
    5.8587    1.4904   -3.7248 C   0  0  0  0  0  0  0  0  0  0  0  0
    5.2295    2.5811   -3.1043 C   0  0  0  0  0  0  0  0  0  0  0  0
    2.0096    3.6895   -1.8835 N   0  0  0  0  0  0  0  0  0  0  0  0
    0.9735    3.4868   -0.9768 C   0  0  0  0  0  0  0  0  0  0  0  0
   -0.4631    3.4701   -1.1746 N   0  0  0  0  0  0  0  0  0  0  0  0
   -1.4265    3.5957   -2.3135 C   0  0  0  0  0  0  0  0  0  0  0  0
   -1.4354    2.7546   -3.5478 C   0  0  0  0  0  0  0  0  0  0  0  0
   -2.4527    2.9736   -4.5158 C   0  0  0  0  0  0  0  0  0  0  0  0
   -3.4074    3.9385   -4.4086 C   0  0  0  0  0  0  0  0  0  0  0  0
   -3.4137    4.7558   -3.3268 C   0  0  0  0  0  0  0  0  0  0  0  0
   -2.4761    4.6288   -2.2853 C   0  0  0  0  0  0  0  0  0  0  0  0
   -2.6898    5.7118   -1.2419 C   0  0  0  0  0  0  0  0  0  0  0  0
   -3.1986    5.1245    0.0568 C   0  0  0  0  0  0  0  0  0  0  0  0
   -1.4755    6.6394   -1.1884 C   0  0  0  0  0  0  0  0  0  0  0  0
   -0.5696    1.5664   -4.0596 C   0  0  0  0  0  0  0  0  0  0  0  0
    0.1317    1.8948   -5.4104 C   0  0  0  0  0  0  0  0  0  0  0  0
    0.4264    0.9269   -3.1320 C   0  0  0  0  0  0  0  0  0  0  0  0
    1.2307    3.3131    0.2663 O   0  0  0  0  0  0  0  0  0  0  0  0
    1.7687    4.1269   -3.2441 C   0  0  0  0  0  0  0  0  0  0  0  0
    4.9213    3.3687    0.0860 H   0  0  0  0  0  0  0  0  0  0  0  0
    3.4312    2.4406    0.3864 H   0  0  0  0  0  0  0  0  0  0  0  0
    3.4515    4.2594    0.5563 H   0  0  0  0  0  0  0  0  0  0  0  0
    3.9643    4.5050   -1.8182 H   0  0  0  0  0  0  0  0  0  0  0  0
    2.8664    0.8543   -1.3973 H   0  0  0  0  0  0  0  0  0  0  0  0
    3.9261   -1.0278   -2.5129 H   0  0  0  0  0  0  0  0  0  0  0  0
    5.8700   -0.6516   -3.9969 H   0  0  0  0  0  0  0  0  0  0  0  0
    6.7183    1.6487   -4.3619 H   0  0  0  0  0  0  0  0  0  0  0  0
    5.6205    3.5758   -3.2688 H   0  0  0  0  0  0  0  0  0  0  0  0
   -2.5388    2.3669   -5.4081 H   0  0  0  0  0  0  0  0  0  0  0  0
   -4.1535    4.0600   -5.1854 H   0  0  0  0  0  0  0  0  0  0  0  0
   -4.1897    5.5134   -3.3172 H   0  0  0  0  0  0  0  0  0  0  0  0
   -3.5206    6.4028   -1.5185 H   0  0  0  0  0  0  0  0  0  0  0  0
   -2.4839    4.4201    0.4541 H   0  0  0  0  0  0  0  0  0  0  0  0
   -4.1463    4.5723   -0.1246 H   0  0  0  0  0  0  0  0  0  0  0  0
   -3.4155    5.9329    0.7849 H   0  0  0  0  0  0  0  0  0  0  0  0
   -1.3666    7.1501   -2.1695 H   0  0  0  0  0  0  0  0  0  0  0  0
   -0.5364    6.0894   -1.0327 H   0  0  0  0  0  0  0  0  0  0  0  0
   -1.6150    7.4229   -0.4137 H   0  0  0  0  0  0  0  0  0  0  0  0
   -1.2745    0.7293   -4.2769 H   0  0  0  0  0  0  0  0  0  0  0  0
    0.8260    2.7405   -5.3344 H   0  0  0  0  0  0  0  0  0  0  0  0
   -0.5770    2.1635   -6.2167 H   0  0  0  0  0  0  0  0  0  0  0  0
    0.6929    1.0129   -5.7853 H   0  0  0  0  0  0  0  0  0  0  0  0
    1.1933    1.6281   -2.8254 H   0  0  0  0  0  0  0  0  0  0  0  0
    0.9329    0.0762   -3.6363 H   0  0  0  0  0  0  0  0  0  0  0  0
   -0.1170    0.4850   -2.2976 H   0  0  0  0  0  0  0  0  0  0  0  0
    2.2462    5.1180   -3.3978 H   0  0  0  0  0  0  0  0  0  0  0  0
    0.7045    4.2600   -3.4781 H   0  0  0  0  0  0  0  0  0  0  0  0
    2.2515    3.4230   -3.9468 H   0  0  0  0  0  0  0  0  0  0  0  0
  1  2  1  0  0  0  0
  1 11  1  0  0  0  0
  1 30  1  0  0  0  0
  1 43  1  0  0  0  0
  1 84  1  0  0  0  0
  1 97  1  0  0  0  0
  2  3  1  0  0  0  0
  2  4  1  0  0  0  0
  3  5  1  0  0  0  0
  3  6  1  0  0  0  0
  3  7  1  0  0  0  0
  4  8  1  0  0  0  0
  4  9  1  0  0  0  0
  4 10  1  0  0  0  0
 11 12  1  0  0  0  0
 11 13  1  0  0  0  0
 12 14  1  0  0  0  0
 12 15  1  0  0  0  0
 12 16  1  0  0  0  0
 13 17  1  0  0  0  0
 13 18  1  0  0  0  0
 13 19  1  0  0  0  0
 20 21  1  0  0  0  0
 20 45  1  0  0  0  0
 20 46  1  0  0  0  0
 20 47  1  0  0  0  0
 21 22  1  0  0  0  0
 21 28  1  0  0  0  0
 21 48  1  1  0  0  0
 22 23  2  0  0  0  0
 22 27  1  0  0  0  0
 23 24  1  0  0  0  0
 23 49  1  0  0  0  0
 24 25  2  0  0  0  0
 24 50  1  0  0  0  0
 25 26  1  0  0  0  0
 25 51  1  0  0  0  0
 26 27  2  0  0  0  0
 26 52  1  0  0  0  0
 27 53  1  0  0  0  0
 28 29  1  0  0  0  0
 28 44  1  0  0  0  0
 29 30  1  0  0  0  0
 29 43  2  0  0  0  0
 30 31  1  0  0  0  0
 31 32  2  0  0  0  0
 31 36  1  0  0  0  0
 32 33  1  0  0  0  0
 32 40  1  0  0  0  0
 33 34  2  0  0  0  0
 33 54  1  0  0  0  0
 34 35  1  0  0  0  0
 34 55  1  0  0  0  0
 35 36  2  0  0  0  0
 35 56  1  0  0  0  0
 36 37  1  0  0  0  0
 37 38  1  0  0  0  0
 37 39  1  0  0  0  0
 37 57  1  0  0  0  0
 38 58  1  0  0  0  0
 38 59  1  0  0  0  0
 38 60  1  0  0  0  0
 39 61  1  0  0  0  0
 39 62  1  0  0  0  0
 39 63  1  0  0  0  0
 40 41  1  0  0  0  0
 40 42  1  0  0  0  0
 40 64  1  0  0  0  0
 41 65  1  0  0  0  0
 41 66  1  0  0  0  0
 41 67  1  0  0  0  0
 42 68  1  0  0  0  0
 42 69  1  0  0  0  0
 42 70  1  0  0  0  0
 44 71  1  0  0  0  0
 44 72  1  0  0  0  0
 44 73  1  0  0  0  0
 74 75  1  0  0  0  0
 74 99  1  0  0  0  0
 74100  1  0  0  0  0
 74101  1  0  0  0  0
 75 76  1  0  0  0  0
 75 82  1  0  0  0  0
 75102  1  6  0  0  0
 76 77  2  0  0  0  0
 76 81  1  0  0  0  0
 77 78  1  0  0  0  0
 77103  1  0  0  0  0
 78 79  2  0  0  0  0
 78104  1  0  0  0  0
 79 80  1  0  0  0  0
 79105  1  0  0  0  0
 80 81  2  0  0  0  0
 80106  1  0  0  0  0
 81107  1  0  0  0  0
 82 83  1  0  0  0  0
 82 98  1  0  0  0  0
 83 84  1  0  0  0  0
 83 97  2  0  0  0  0
 84 85  1  0  0  0  0
 85 86  2  0  0  0  0
 85 90  1  0  0  0  0
 86 87  1  0  0  0  0
 86 94  1  0  0  0  0
 87 88  2  0  0  0  0
 87108  1  0  0  0  0
 88 89  1  0  0  0  0
 88109  1  0  0  0  0
 89 90  2  0  0  0  0
 89110  1  0  0  0  0
 90 91  1  0  0  0  0
 91 92  1  0  0  0  0
 91 93  1  0  0  0  0
 91111  1  0  0  0  0
 92112  1  0  0  0  0
 92113  1  0  0  0  0
 92114  1  0  0  0  0
 93115  1  0  0  0  0
 93116  1  0  0  0  0
 93117  1  0  0  0  0
 94 95  1  0  0  0  0
 94 96  1  0  0  0  0
 94118  1  0  0  0  0
 95119  1  0  0  0  0
 95120  1  0  0  0  0
 95121  1  0  0  0  0
 96122  1  0  0  0  0
 96123  1  0  0  0  0
 96124  1  0  0  0  0
 98125  1  0  0  0  0
 98126  1  0  0  0  0
 98127  1  0  0  0  0
M  END
>  <fileName>
/Users/dawn_mao/Desktop/PhD_research/chpt4_Ti_ureate/TM_catalyst_framework/src/TM_catalyst_framework/template/octahedral.sdf

$$$$
