
 OpenBabel12172512493D

127132  0  0  0  0  0  0  0  0999 V2000
    0.0451    0.0928    0.2583 Ta  0  0  0  0  0  0  0  0  0  0  0  0
    0.0675    0.2857    2.5013 N   0  0  0  0  0  0  0  0  0  0  0  0
    1.3098    0.8271    3.0824 C   0  0  0  0  0  0  0  0  0  0  0  0
   -1.1854    0.6294    3.2018 C   0  0  0  0  0  0  0  0  0  0  0  0
    2.0738    0.9785    2.2958 H   0  0  0  0  0  0  0  0  0  0  0  0
    1.1436    1.7802    3.6239 H   0  0  0  0  0  0  0  0  0  0  0  0
    1.7329    0.1255    3.8218 H   0  0  0  0  0  0  0  0  0  0  0  0
   -1.7555    1.4216    2.6922 H   0  0  0  0  0  0  0  0  0  0  0  0
   -1.8622   -0.2363    3.2561 H   0  0  0  0  0  0  0  0  0  0  0  0
   -0.9849    0.9361    4.2501 H   0  0  0  0  0  0  0  0  0  0  0  0
   -0.0911   -0.2124   -2.0001 N   0  0  0  0  0  0  0  0  0  0  0  0
    0.9181    0.2490   -2.9777 C   0  0  0  0  0  0  0  0  0  0  0  0
   -1.4487   -0.0518   -2.5183 C   0  0  0  0  0  0  0  0  0  0  0  0
    0.7156   -0.2015   -3.9706 H   0  0  0  0  0  0  0  0  0  0  0  0
    1.9353   -0.0779   -2.6919 H   0  0  0  0  0  0  0  0  0  0  0  0
    0.8703    1.3218   -3.2054 H   0  0  0  0  0  0  0  0  0  0  0  0
   -1.5434   -0.4968   -3.5322 H   0  0  0  0  0  0  0  0  0  0  0  0
   -2.1579   -0.6012   -1.8684 H   0  0  0  0  0  0  0  0  0  0  0  0
   -1.7088    1.0239   -2.5802 H   0  0  0  0  0  0  0  0  0  0  0  0
    1.4632   -2.1840    5.5482 C   0  0  0  0  0  0  0  0  0  0  0  0
    0.4814   -2.5004    4.4112 C   0  0  0  0  0  0  0  0  0  0  0  0
   -0.9659   -2.3624    4.9328 C   0  0  0  0  0  0  0  0  0  0  0  0
    0.8042   -3.8624    3.8154 C   0  0  0  0  0  0  0  0  0  0  0  0
    0.4792   -4.9888    4.5909 C   0  0  0  0  0  0  0  0  0  0  0  0
    0.8558   -6.2567    4.2046 C   0  0  0  0  0  0  0  0  0  0  0  0
    1.6165   -6.4334    3.0653 C   0  0  0  0  0  0  0  0  0  0  0  0
    1.9835   -5.3462    2.2445 C   0  0  0  0  0  0  0  0  0  0  0  0
    2.9525   -5.6329    1.1014 C   0  0  0  0  0  0  0  0  0  0  0  0
    2.5191   -6.8048    0.1897 C   0  0  0  0  0  0  0  0  0  0  0  0
    4.3363   -5.9390    1.6904 C   0  0  0  0  0  0  0  0  0  0  0  0
    1.5230   -4.0220    2.5727 C   0  0  0  0  0  0  0  0  0  0  0  0
    1.9787   -2.8560    1.8411 N   0  0  0  0  0  0  0  0  0  0  0  0
    1.3726   -2.0588    0.9864 C   0  0  0  0  0  0  0  0  0  0  0  0
    1.8660   -0.7880    0.6721 O   0  0  0  0  0  0  0  0  0  0  0  0
   -0.0102   -2.1063    0.4509 N   0  3  0  0  0  0  0  0  0  0  0  0
   -1.0695   -2.5064    1.3584 C   0  0  0  0  0  0  0  0  0  0  0  0
   -0.1030   -2.9312   -0.8180 C   0  0  2  0  0  0  0  0  0  0  0  0
   -0.1898   -4.4440   -0.5615 C   0  0  0  0  0  0  0  0  0  0  0  0
    1.0202   -2.7973   -1.8973 C   0  0  0  0  0  0  0  0  0  0  0  0
    2.4154   -2.8596   -1.6391 C   0  0  0  0  0  0  0  0  0  0  0  0
    3.3561   -2.7954   -2.6698 C   0  0  0  0  0  0  0  0  0  0  0  0
    2.9420   -2.6976   -3.9925 C   0  0  0  0  0  0  0  0  0  0  0  0
    1.5816   -2.6787   -4.2884 C   0  0  0  0  0  0  0  0  0  0  0  0
    0.6318   -2.7341   -3.2576 C   0  0  0  0  0  0  0  0  0  0  0  0
    1.2829   -1.1593    5.9397 H   0  0  0  0  0  0  0  0  0  0  0  0
    2.5080   -2.2272    5.1710 H   0  0  0  0  0  0  0  0  0  0  0  0
    1.3545   -2.9060    6.3848 H   0  0  0  0  0  0  0  0  0  0  0  0
    0.6537   -1.7527    3.6408 H   0  0  0  0  0  0  0  0  0  0  0  0
   -1.7165   -2.6009    4.1565 H   0  0  0  0  0  0  0  0  0  0  0  0
   -1.1370   -1.3247    5.2887 H   0  0  0  0  0  0  0  0  0  0  0  0
   -1.1592   -3.0247    5.7991 H   0  0  0  0  0  0  0  0  0  0  0  0
   -0.0494   -4.8933    5.5285 H   0  0  0  0  0  0  0  0  0  0  0  0
    0.6005   -7.1057    4.8260 H   0  0  0  0  0  0  0  0  0  0  0  0
    1.9459   -7.4385    2.8487 H   0  0  0  0  0  0  0  0  0  0  0  0
    3.0688   -4.7329    0.4832 H   0  0  0  0  0  0  0  0  0  0  0  0
    1.5219   -6.6627   -0.2606 H   0  0  0  0  0  0  0  0  0  0  0  0
    2.4941   -7.7667    0.7410 H   0  0  0  0  0  0  0  0  0  0  0  0
    3.2483   -6.9206   -0.6393 H   0  0  0  0  0  0  0  0  0  0  0  0
    4.3086   -6.8490    2.3281 H   0  0  0  0  0  0  0  0  0  0  0  0
    5.0754   -6.0996    0.8777 H   0  0  0  0  0  0  0  0  0  0  0  0
    4.6814   -5.0837    2.3108 H   0  0  0  0  0  0  0  0  0  0  0  0
   -0.9715   -3.5442    1.7229 H   0  0  0  0  0  0  0  0  0  0  0  0
   -2.0610   -2.3649    0.8775 H   0  0  0  0  0  0  0  0  0  0  0  0
   -1.0485   -1.8740    2.2278 H   0  0  0  0  0  0  0  0  0  0  0  0
   -1.0727   -2.6978   -1.3107 H   0  0  0  0  0  0  0  0  0  0  0  0
    0.6916   -4.7374    0.0080 H   0  0  0  0  0  0  0  0  0  0  0  0
   -1.1070   -4.7448   -0.0199 H   0  0  0  0  0  0  0  0  0  0  0  0
   -0.2216   -5.0082   -1.5202 H   0  0  0  0  0  0  0  0  0  0  0  0
    2.8286   -2.9566   -0.6626 H   0  0  0  0  0  0  0  0  0  0  0  0
    4.4141   -2.8299   -2.4380 H   0  0  0  0  0  0  0  0  0  0  0  0
    3.6770   -2.6487   -4.7865 H   0  0  0  0  0  0  0  0  0  0  0  0
    1.2614   -2.6153   -5.3201 H   0  0  0  0  0  0  0  0  0  0  0  0
   -0.4150   -2.7259   -3.5291 H   0  0  0  0  0  0  0  0  0  0  0  0
   -3.1732    6.7713    2.6129 C   0  0  0  0  0  0  0  0  0  0  0  0
   -2.8809    5.5839    1.6769 C   0  0  0  0  0  0  0  0  0  0  0  0
   -2.5694    6.1368    0.2736 C   0  0  0  0  0  0  0  0  0  0  0  0
   -3.9960    4.5208    1.6001 C   0  0  0  0  0  0  0  0  0  0  0  0
   -5.2578    4.7952    2.1599 C   0  0  0  0  0  0  0  0  0  0  0  0
   -6.2762    3.8739    2.1113 C   0  0  0  0  0  0  0  0  0  0  0  0
   -6.0780    2.6538    1.5065 C   0  0  0  0  0  0  0  0  0  0  0  0
   -4.8396    2.2791    0.9321 C   0  0  0  0  0  0  0  0  0  0  0  0
   -4.9038    0.8647    0.3373 C   0  0  0  0  0  0  0  0  0  0  0  0
   -4.5687    0.8482   -1.1524 C   0  0  0  0  0  0  0  0  0  0  0  0
   -4.2797   -0.2168    1.2371 C   0  0  0  0  0  0  0  0  0  0  0  0
   -3.7370    3.2480    0.9802 C   0  0  0  0  0  0  0  0  0  0  0  0
   -2.3522    3.1221    0.5526 N   0  0  0  0  0  0  0  0  0  0  0  0
   -1.5417    2.1965    0.1429 C   0  0  0  0  0  0  0  0  0  0  0  0
   -1.8578    0.8623    0.0877 O   0  0  0  0  0  0  0  0  0  0  0  0
   -0.0582    2.3164    0.2248 N   0  3  0  0  0  0  0  0  0  0  0  0
    0.2952    3.0980    1.4169 C   0  0  0  0  0  0  0  0  0  0  0  0
    0.6962    2.8437   -0.9344 C   0  0  2  0  0  0  0  0  0  0  0  0
    2.0814    2.1612   -0.9797 C   0  0  0  0  0  0  0  0  0  0  0  0
    0.9504    4.3723   -1.0346 C   0  0  0  0  0  0  0  0  0  0  0  0
    0.2909    5.1426   -2.0120 C   0  0  0  0  0  0  0  0  0  0  0  0
    0.5683    6.5107   -2.1519 C   0  0  0  0  0  0  0  0  0  0  0  0
    1.5141    7.1294   -1.3314 C   0  0  0  0  0  0  0  0  0  0  0  0
    2.1860    6.3869   -0.3672 C   0  0  0  0  0  0  0  0  0  0  0  0
    1.9130    5.0295   -0.2185 C   0  0  0  0  0  0  0  0  0  0  0  0
   -4.0347    7.3726    2.2523 H   0  0  0  0  0  0  0  0  0  0  0  0
   -2.2890    7.4421    2.6612 H   0  0  0  0  0  0  0  0  0  0  0  0
   -3.3750    6.4049    3.6427 H   0  0  0  0  0  0  0  0  0  0  0  0
   -1.9793    5.0972    2.1044 H   0  0  0  0  0  0  0  0  0  0  0  0
   -2.2745    5.3452   -0.4410 H   0  0  0  0  0  0  0  0  0  0  0  0
   -1.7319    6.8643    0.3236 H   0  0  0  0  0  0  0  0  0  0  0  0
   -3.4650    6.6500   -0.1387 H   0  0  0  0  0  0  0  0  0  0  0  0
   -5.4858    5.7309    2.6451 H   0  0  0  0  0  0  0  0  0  0  0  0
   -7.2390    4.1080    2.5493 H   0  0  0  0  0  0  0  0  0  0  0  0
   -6.9299    1.9832    1.5114 H   0  0  0  0  0  0  0  0  0  0  0  0
   -5.9602    0.5072    0.3284 H   0  0  0  0  0  0  0  0  0  0  0  0
   -4.6540   -0.1840   -1.5554 H   0  0  0  0  0  0  0  0  0  0  0  0
   -5.3003    1.4870   -1.6924 H   0  0  0  0  0  0  0  0  0  0  0  0
   -3.5857    1.2662   -1.3781 H   0  0  0  0  0  0  0  0  0  0  0  0
   -4.4243   -1.2210    0.7831 H   0  0  0  0  0  0  0  0  0  0  0  0
   -4.8011   -0.2154    2.2189 H   0  0  0  0  0  0  0  0  0  0  0  0
   -3.2294   -0.1022    1.4808 H   0  0  0  0  0  0  0  0  0  0  0  0
    1.3704    3.0264    1.6484 H   0  0  0  0  0  0  0  0  0  0  0  0
    0.0168    4.1648    1.2958 H   0  0  0  0  0  0  0  0  0  0  0  0
   -0.2706    2.8248    2.3068 H   0  0  0  0  0  0  0  0  0  0  0  0
    0.0935    2.5737   -1.8128 H   0  0  0  0  0  0  0  0  0  0  0  0
    2.6153    2.4180   -1.9201 H   0  0  0  0  0  0  0  0  0  0  0  0
    2.7267    2.4394   -0.1270 H   0  0  0  0  0  0  0  0  0  0  0  0
    1.9916    1.0756   -0.8841 H   0  0  0  0  0  0  0  0  0  0  0  0
   -0.4351    4.6876   -2.6720 H   0  0  0  0  0  0  0  0  0  0  0  0
    0.0573    7.0940   -2.9054 H   0  0  0  0  0  0  0  0  0  0  0  0
    1.7369    8.1824   -1.4459 H   0  0  0  0  0  0  0  0  0  0  0  0
    2.9317    6.8572    0.2629 H   0  0  0  0  0  0  0  0  0  0  0  0
    2.4868    4.5066    0.5290 H   0  0  0  0  0  0  0  0  0  0  0  0
  1  2  1  0  0  0  0
  1 11  1  0  0  0  0
  1 34  1  0  0  0  0
  1 35  1  0  0  0  0
  1 88  1  0  0  0  0
  1 89  1  0  0  0  0
  2  3  1  0  0  0  0
  2  4  1  0  0  0  0
  3  5  1  0  0  0  0
  3  6  1  0  0  0  0
  3  7  1  0  0  0  0
  4  8  1  0  0  0  0
  4  9  1  0  0  0  0
  4 10  1  0  0  0  0
 11 12  1  0  0  0  0
 11 13  1  0  0  0  0
 12 14  1  0  0  0  0
 12 15  1  0  0  0  0
 12 16  1  0  0  0  0
 13 17  1  0  0  0  0
 13 18  1  0  0  0  0
 13 19  1  0  0  0  0
 20 21  1  0  0  0  0
 20 45  1  0  0  0  0
 20 46  1  0  0  0  0
 20 47  1  0  0  0  0
 21 22  1  0  0  0  0
 21 23  1  0  0  0  0
 21 48  1  0  0  0  0
 22 49  1  0  0  0  0
 22 50  1  0  0  0  0
 22 51  1  0  0  0  0
 23 24  2  0  0  0  0
 24 25  1  0  0  0  0
 24 52  1  0  0  0  0
 25 26  2  0  0  0  0
 25 53  1  0  0  0  0
 26 27  1  0  0  0  0
 26 54  1  0  0  0  0
 27 28  1  0  0  0  0
 27 31  2  0  0  0  0
 28 29  1  0  0  0  0
 28 30  1  0  0  0  0
 28 55  1  0  0  0  0
 29 56  1  0  0  0  0
 29 57  1  0  0  0  0
 29 58  1  0  0  0  0
 30 59  1  0  0  0  0
 30 60  1  0  0  0  0
 30 61  1  0  0  0  0
 31 32  1  0  0  0  0
 31 23  1  0  0  0  0
 32 33  2  0  0  0  0
 33 34  1  0  0  0  0
 33 35  1  0  0  0  0
 35 36  1  0  0  0  0
 35 37  1  0  0  0  0
 36 62  1  0  0  0  0
 36 63  1  0  0  0  0
 36 64  1  0  0  0  0
 37 38  1  0  0  0  0
 37 39  1  0  0  0  0
 37 65  1  6  0  0  0
 38 66  1  0  0  0  0
 38 67  1  0  0  0  0
 38 68  1  0  0  0  0
 39 40  2  0  0  0  0
 40 41  1  0  0  0  0
 40 69  1  0  0  0  0
 41 42  2  0  0  0  0
 41 70  1  0  0  0  0
 42 43  1  0  0  0  0
 42 71  1  0  0  0  0
 43 44  2  0  0  0  0
 43 72  1  0  0  0  0
 44 39  1  0  0  0  0
 44 73  1  0  0  0  0
 74 75  1  0  0  0  0
 74 99  1  0  0  0  0
 74100  1  0  0  0  0
 74101  1  0  0  0  0
 75 76  1  0  0  0  0
 75 77  1  0  0  0  0
 75102  1  0  0  0  0
 76103  1  0  0  0  0
 76104  1  0  0  0  0
 76105  1  0  0  0  0
 77 78  2  0  0  0  0
 78 79  1  0  0  0  0
 78106  1  0  0  0  0
 79 80  2  0  0  0  0
 79107  1  0  0  0  0
 80 81  1  0  0  0  0
 80108  1  0  0  0  0
 81 82  1  0  0  0  0
 81 85  2  0  0  0  0
 82 83  1  0  0  0  0
 82 84  1  0  0  0  0
 82109  1  0  0  0  0
 83110  1  0  0  0  0
 83111  1  0  0  0  0
 83112  1  0  0  0  0
 84113  1  0  0  0  0
 84114  1  0  0  0  0
 84115  1  0  0  0  0
 85 86  1  0  0  0  0
 85 77  1  0  0  0  0
 86 87  2  0  0  0  0
 87 88  1  0  0  0  0
 87 89  1  0  0  0  0
 89 90  1  0  0  0  0
 89 91  1  0  0  0  0
 90116  1  0  0  0  0
 90117  1  0  0  0  0
 90118  1  0  0  0  0
 91 92  1  0  0  0  0
 91 93  1  0  0  0  0
 91119  1  6  0  0  0
 92120  1  0  0  0  0
 92121  1  0  0  0  0
 92122  1  0  0  0  0
 93 94  2  0  0  0  0
 94 95  1  0  0  0  0
 94123  1  0  0  0  0
 95 96  2  0  0  0  0
 95124  1  0  0  0  0
 96 97  1  0  0  0  0
 96125  1  0  0  0  0
 97 98  2  0  0  0  0
 97126  1  0  0  0  0
 98 93  1  0  0  0  0
 98127  1  0  0  0  0
M  CHG  2  35   1  89   1
M  END
$$$$
