
 OpenBabel11092513033D

 29 30  0  0  0  0  0  0  0  0999 V2000
   -0.0000    0.1310   -0.0020 Ti  0  0  0  0  0  0  0  0  0  0  0  0
   -1.8325   -0.9960    0.8395 N   0  0  0  0  0  0  0  0  0  0  0  0
   -3.0276   -0.6374    0.0622 C   0  0  0  0  0  0  0  0  0  0  0  0
   -1.6027   -2.4448    0.7445 C   0  0  0  0  0  0  0  0  0  0  0  0
    1.4413    1.2792    1.3910 N   0  0  0  0  0  0  0  0  0  0  0  0
    2.5088    1.8962    0.5905 C   0  0  0  0  0  0  0  0  0  0  0  0
    2.0329    0.3461    2.3606 C   0  0  0  0  0  0  0  0  0  0  0  0
    0.9540   -0.6120    0.9350 O   0  0  0  0  0  0  0  0  0  0  0  0
    2.5730   -0.4159    1.8384 H   0  0  0  0  0  0  0  0  0  0  0  0
    2.7006    0.8779    3.0058 H   0  0  0  0  0  0  0  0  0  0  0  0
   -0.9540   -0.6290   -0.9240 O   0  0  0  0  0  0  0  0  0  0  0  0
   -3.8764   -1.1594    0.4520 H   0  0  0  0  0  0  0  0  0  0  0  0
    3.1764    2.4280    1.2357 H   0  0  0  0  0  0  0  0  0  0  0  0
    1.2559   -0.1030    2.9432 H   0  0  0  0  0  0  0  0  0  0  0  0
    3.0488    1.1342    0.0683 H   0  0  0  0  0  0  0  0  0  0  0  0
    2.0781    2.5754   -0.1153 H   0  0  0  0  0  0  0  0  0  0  0  0
   -1.4566   -2.7164   -0.2801 H   0  0  0  0  0  0  0  0  0  0  0  0
   -0.7328   -2.7058    1.3103 H   0  0  0  0  0  0  0  0  0  0  0  0
   -2.4515   -2.9668    1.1343 H   0  0  0  0  0  0  0  0  0  0  0  0
   -2.8814   -0.9090   -0.9624 H   0  0  0  0  0  0  0  0  0  0  0  0
   -3.1948    0.4172    0.1313 H   0  0  0  0  0  0  0  0  0  0  0  0
   -1.2130    0.8870    0.5450 I   0  0  0  0  0  2  0  0  0  0  0  0
    1.2130    0.8770   -0.5590 Br  0  0  0  0  0  2  0  0  0  0  0  0
    2.0550   -0.3280   -0.1030 C   0  0  1  0  0  0  0  0  0  0  0  0
   -2.0550   -0.3260    0.1080 C   0  0  2  0  0  0  0  0  0  0  0  0
    3.3320   -0.1998    0.2459 F   0  0  0  0  0  0  0  0  0  0  0  0
   -2.2647   -1.5746    1.3592 Cl  0  0  0  0  0  0  0  0  0  0  0  0
    2.3808   -1.0775   -0.7937 H   0  0  0  0  0  0  0  0  0  0  0  0
   -3.0819   -0.2267   -0.1758 H   0  0  0  0  0  0  0  0  0  0  0  0
  1 11  1  0  0  0  0
  1  8  1  0  0  0  0
  1  5  1  0  0  0  0
  1  2  1  0  0  0  0
  1 22  1  0  0  0  0
  1 23  1  0  0  0  0
  2  3  1  0  0  0  0
  2  4  1  0  0  0  0
  3 20  1  0  0  0  0
  3 12  1  0  0  0  0
  3 21  1  0  0  0  0
  4 17  1  0  0  0  0
  4 18  1  0  0  0  0
  4 19  1  0  0  0  0
  5  7  1  0  0  0  0
  5  6  1  0  0  0  0
  6 15  1  0  0  0  0
  6 16  1  0  0  0  0
  6 13  1  0  0  0  0
  7  9  1  0  0  0  0
  7 10  1  0  0  0  0
  7 14  1  0  0  0  0
  8 24  1  0  0  0  0
 11 25  1  0  0  0  0
 22 25  1  0  0  0  0
 23 24  1  0  0  0  0
 24 26  1  0  0  0  0
 24 28  1  6  0  0  0
 25 27  1  0  0  0  0
 25 29  1  6  0  0  0
M  END
>  <fileName>
/Users/dawn_mao/Desktop/PhD_research/chpt4_Ti_ureate/TM_catalyst_framework/src/TM_catalyst_framework/metal_center_template/u2_d2d2_iso1.sdf

$$$$
