
 OpenBabel12022512463D

127132  0  0  0  0  0  0  0  0999 V2000
   -1.7242    3.6733    0.0225 Ta  0  0  0  0  0  0  0  0  0  0  0  0
   -0.6895    5.0604    1.2124 N   0  0  0  0  0  0  0  0  0  0  0  0
   -0.1409    6.1400    0.3925 C   0  0  0  0  0  0  0  0  0  0  0  0
   -1.6892    5.4926    2.1950 C   0  0  0  0  0  0  0  0  0  0  0  0
    0.7217    6.5922    0.9096 H   0  0  0  0  0  0  0  0  0  0  0  0
    0.1939    5.7505   -0.5992 H   0  0  0  0  0  0  0  0  0  0  0  0
   -0.8772    6.9522    0.2716 H   0  0  0  0  0  0  0  0  0  0  0  0
   -1.4855    6.5176    2.5465 H   0  0  0  0  0  0  0  0  0  0  0  0
   -1.6472    4.8579    3.0980 H   0  0  0  0  0  0  0  0  0  0  0  0
   -2.7062    5.4727    1.7580 H   0  0  0  0  0  0  0  0  0  0  0  0
   -0.7421    0.4223    0.4336 N   0  0  0  0  0  0  0  0  0  0  0  0
   -2.1565    0.0805    0.4675 C   0  0  0  0  0  0  0  0  0  0  0  0
   -0.4482   -0.2552   -0.6796 C   0  0  0  0  0  0  0  0  0  0  0  0
   -2.5604    0.1475    1.4683 H   0  0  0  0  0  0  0  0  0  0  0  0
   -2.3884   -0.9229    0.0247 H   0  0  0  0  0  0  0  0  0  0  0  0
   -2.7081    0.8661   -0.0385 H   0  0  0  0  0  0  0  0  0  0  0  0
   -0.6510    0.6235   -1.6641 H   0  0  0  0  0  0  0  0  0  0  0  0
   -0.1274   -1.1581   -0.7739 H   0  0  0  0  0  0  0  0  0  0  0  0
    1.7489   -0.4831   -0.8360 H   0  0  0  0  0  0  0  0  0  0  0  0
    0.7591    0.7005    3.5830 C   0  0  0  0  0  0  0  0  0  0  0  0
   -0.6964    0.0748    3.8255 C   0  0  2  0  0  0  0  0  0  0  0  0
   -0.3995   -1.3729    3.1435 C   0  0  0  0  0  0  0  0  0  0  0  0
   -1.1303   -2.1094    2.1756 C   0  0  0  0  0  0  0  0  0  0  0  0
   -0.5700   -3.2292    1.4976 C   0  0  0  0  0  0  0  0  0  0  0  0
    0.7082   -3.6949    1.7966 C   0  0  0  0  0  0  0  0  0  0  0  0
    1.3910   -3.1169    2.8344 C   0  0  0  0  0  0  0  0  0  0  0  0
    0.8419   -2.0228    3.5094 C   0  0  0  0  0  0  0  0  0  0  0  0
   -1.9998    0.9818    3.6697 N   0  0  0  0  0  0  0  0  0  0  0  0
   -1.7504    2.2131    3.4015 C   0  0  0  0  0  0  0  0  0  0  0  0
   -2.9849    2.9409    1.3013 N   0  0  0  0  0  0  0  0  0  0  0  0
   -4.0162    3.1094    0.1694 C   0  0  0  0  0  0  0  0  0  0  0  0
   -4.4306    2.3943   -1.0034 C   0  0  0  0  0  0  0  0  0  0  0  0
   -5.7841    2.7679   -1.1442 C   0  0  0  0  0  0  0  0  0  0  0  0
   -6.2764    3.9893   -0.6914 C   0  0  0  0  0  0  0  0  0  0  0  0
   -5.3602    4.9766   -0.2987 C   0  0  0  0  0  0  0  0  0  0  0  0
   -3.9920    4.6630   -0.3591 C   0  0  0  0  0  0  0  0  0  0  0  0
   -3.6017    5.3791   -1.8262 C   0  0  0  0  0  0  0  0  0  0  0  0
   -2.7677    4.7085   -2.9615 C   0  0  0  0  0  0  0  0  0  0  0  0
   -3.0134    6.7912   -1.7247 C   0  0  0  0  0  0  0  0  0  0  0  0
   -4.0661    1.2675   -2.0958 C   0  0  0  0  0  0  0  0  0  0  0  0
   -4.5684    1.7395   -3.5250 C   0  0  0  0  0  0  0  0  0  0  0  0
   -2.6879    0.7003   -2.5192 C   0  0  0  0  0  0  0  0  0  0  0  0
   -0.3538    2.6522    2.9989 O   0  0  0  0  0  0  0  0  0  0  0  0
   -2.8914    0.8726    4.7819 C   0  0  0  0  0  0  0  0  0  0  0  0
    1.6822    0.1834    3.6690 H   0  0  0  0  0  0  0  0  0  0  0  0
    1.0111    1.5347    4.2458 H   0  0  0  0  0  0  0  0  0  0  0  0
    0.9146    0.9021    2.6218 H   0  0  0  0  0  0  0  0  0  0  0  0
   -0.6497   -0.1767    4.8979 H   0  0  0  0  0  0  0  0  0  0  0  0
   -2.1140   -1.8456    1.8950 H   0  0  0  0  0  0  0  0  0  0  0  0
   -1.1144   -3.7374    0.7121 H   0  0  0  0  0  0  0  0  0  0  0  0
    1.1580   -4.5251    1.2574 H   0  0  0  0  0  0  0  0  0  0  0  0
    2.3791   -3.4912    3.1026 H   0  0  0  0  0  0  0  0  0  0  0  0
    1.4683   -1.6588    4.3075 H   0  0  0  0  0  0  0  0  0  0  0  0
   -6.4669    2.1461   -1.7079 H   0  0  0  0  0  0  0  0  0  0  0  0
   -7.3051    4.2414   -0.8839 H   0  0  0  0  0  0  0  0  0  0  0  0
   -5.7612    5.9717   -0.4182 H   0  0  0  0  0  0  0  0  0  0  0  0
   -4.5576    5.5406   -2.3851 H   0  0  0  0  0  0  0  0  0  0  0  0
   -2.9691    5.1938   -3.9496 H   0  0  0  0  0  0  0  0  0  0  0  0
   -2.9736    3.6540   -3.0753 H   0  0  0  0  0  0  0  0  0  0  0  0
   -1.6737    4.8717   -2.8784 H   0  0  0  0  0  0  0  0  0  0  0  0
   -3.0304    7.2874   -2.7251 H   0  0  0  0  0  0  0  0  0  0  0  0
   -1.9491    6.7359   -1.4680 H   0  0  0  0  0  0  0  0  0  0  0  0
   -3.5759    7.4198   -1.0143 H   0  0  0  0  0  0  0  0  0  0  0  0
   -4.6909    0.3981   -1.8196 H   0  0  0  0  0  0  0  0  0  0  0  0
   -3.7551    2.0994   -4.2004 H   0  0  0  0  0  0  0  0  0  0  0  0
   -5.3037    2.5631   -3.5442 H   0  0  0  0  0  0  0  0  0  0  0  0
   -4.9903    0.8762   -4.0796 H   0  0  0  0  0  0  0  0  0  0  0  0
   -1.9409    1.4694   -2.8128 H   0  0  0  0  0  0  0  0  0  0  0  0
   -2.7772    0.0509   -3.4228 H   0  0  0  0  0  0  0  0  0  0  0  0
   -2.3000   -0.0281   -1.8651 H   0  0  0  0  0  0  0  0  0  0  0  0
   -3.0338   -0.2049    4.9997 H   0  0  0  0  0  0  0  0  0  0  0  0
   -2.3748    1.3289    5.6609 H   0  0  0  0  0  0  0  0  0  0  0  0
   -3.8722    1.3620    4.6362 H   0  0  0  0  0  0  0  0  0  0  0  0
    1.4107    0.3742    0.6520 C   0  0  0  0  0  0  0  0  0  0  0  0
    3.6539    0.4116   -0.6567 C   0  0  1  0  0  0  0  0  0  0  0  0
    3.2612    0.0026    1.3165 C   0  0  0  0  0  0  0  0  0  0  0  0
    3.3400   -1.2753    2.0934 C   0  0  0  0  0  0  0  0  0  0  0  0
    3.5344   -1.2472    3.4573 C   0  0  0  0  0  0  0  0  0  0  0  0
    3.8271   -0.1229    4.1348 C   0  0  0  0  0  0  0  0  0  0  0  0
    3.6623    1.0634    3.4809 C   0  0  0  0  0  0  0  0  0  0  0  0
    3.3514    1.0998    2.1530 C   0  0  0  0  0  0  0  0  0  0  0  0
    3.3726   -0.0678    0.1066 N   0  0  0  0  0  0  0  0  0  0  0  0
    1.5602    3.2480    0.9049 C   0  0  0  0  0  0  0  0  0  0  0  0
    1.5984    3.3039    0.8420 N   0  0  0  0  0  0  0  0  0  0  0  0
    0.4621   -2.7763   -3.6332 C   0  0  0  0  0  0  0  0  0  0  0  0
    0.7426   -4.7399   -2.9059 C   0  0  0  0  0  0  0  0  0  0  0  0
    0.5116   -6.4253   -3.4645 C   0  0  0  0  0  0  0  0  0  0  0  0
    0.1227   -6.6148   -4.5151 C   0  0  0  0  0  0  0  0  0  0  0  0
   -0.0812   -5.2957   -4.9984 C   0  0  0  0  0  0  0  0  0  0  0  0
    0.8674   -2.8183   -4.2373 C   0  0  0  0  0  0  0  0  0  0  0  0
    1.5297   -1.5963   -3.8259 C   0  0  0  0  0  0  0  0  0  0  0  0
   -0.8566   -1.6865   -2.6631 C   0  0  0  0  0  0  0  0  0  0  0  0
    1.6360   -1.5001   -2.4697 C   0  0  0  0  0  0  0  0  0  0  0  0
    2.8631   -5.1766   -2.0053 C   0  0  0  0  0  0  0  0  0  0  0  0
    3.7174   -6.9493   -2.3031 C   0  0  0  0  0  0  0  0  0  0  0  0
    3.5342   -5.0716   -0.7756 C   0  0  0  0  0  0  0  0  0  0  0  0
   -1.0753    3.2631   -1.1021 O   0  0  0  0  0  0  0  0  0  0  0  0
    5.6447   -1.7833   -0.5839 C   0  0  0  0  0  0  0  0  0  0  0  0
    0.7901    1.3845   -0.4890 H   0  0  0  0  0  0  0  0  0  0  0  0
    0.8688   -0.9259    0.6834 H   0  0  0  0  0  0  0  0  0  0  0  0
    0.9706    0.6454   -1.5110 H   0  0  0  0  0  0  0  0  0  0  0  0
    3.0026    1.0127   -0.4656 H   0  0  0  0  0  0  0  0  0  0  0  0
    3.3619   -2.1760    1.5281 H   0  0  0  0  0  0  0  0  0  0  0  0
    3.4374   -2.1133    4.0067 H   0  0  0  0  0  0  0  0  0  0  0  0
    4.1510   -0.1671    5.1254 H   0  0  0  0  0  0  0  0  0  0  0  0
    3.7481    1.9526    4.0005 H   0  0  0  0  0  0  0  0  0  0  0  0
    3.2914    1.9898    1.6476 H   0  0  0  0  0  0  0  0  0  0  0  0
    1.2565   -7.2854   -3.4103 H   0  0  0  0  0  0  0  0  0  0  0  0
   -0.9295   -6.8115   -4.3211 H   0  0  0  0  0  0  0  0  0  0  0  0
   -2.6143   -5.3433   -4.6656 H   0  0  0  0  0  0  0  0  0  0  0  0
    0.5919   -1.0604   -4.2804 H   0  0  0  0  0  0  0  0  0  0  0  0
   -0.9838   -2.2765   -1.7421 H   0  0  0  0  0  0  0  0  0  0  0  0
   -1.6774   -2.2993   -3.2786 H   0  0  0  0  0  0  0  0  0  0  0  0
   -1.0108   -0.8238   -2.7470 H   0  0  0  0  0  0  0  0  0  0  0  0
    1.5055   -1.9385   -1.4993 H   0  0  0  0  0  0  0  0  0  0  0  0
    1.4945   -0.5618   -2.6531 H   0  0  0  0  0  0  0  0  0  0  0  0
    2.5242   -1.7477   -2.8906 H   0  0  0  0  0  0  0  0  0  0  0  0
    2.3145   -6.6234   -0.9516 H   0  0  0  0  0  0  0  0  0  0  0  0
    4.3205   -6.4988   -3.0189 H   0  0  0  0  0  0  0  0  0  0  0  0
    3.2229   -7.8452   -2.8207 H   0  0  0  0  0  0  0  0  0  0  0  0
    4.4532   -7.5280   -1.6102 H   0  0  0  0  0  0  0  0  0  0  0  0
    4.1116   -4.5137   -1.4828 H   0  0  0  0  0  0  0  0  0  0  0  0
    4.2456   -5.5825   -0.1115 H   0  0  0  0  0  0  0  0  0  0  0  0
    2.8571   -4.5006   -0.2424 H   0  0  0  0  0  0  0  0  0  0  0  0
    5.2936   -0.7773   -0.3093 H   0  0  0  0  0  0  0  0  0  0  0  0
    4.9298   -1.4482   -1.8229 H   0  0  0  0  0  0  0  0  0  0  0  0
    4.8608   -2.3718   -0.4128 H   0  0  0  0  0  0  0  0  0  0  0  0
  1  2  1  0  0  0  0
  1 11  1  0  0  0  0
  1 43  1  0  0  0  0
  1 30  1  0  0  0  0
  1 97  1  0  0  0  0
  1 84  1  0  0  0  0
  2  3  1  0  0  0  0
  2  4  1  0  0  0  0
  3  5  1  0  0  0  0
  3  6  1  0  0  0  0
  3  7  1  0  0  0  0
  4  8  1  0  0  0  0
  4  9  1  0  0  0  0
  4 10  1  0  0  0  0
 11 12  1  0  0  0  0
 11 13  1  0  0  0  0
 12 14  1  0  0  0  0
 12 15  1  0  0  0  0
 12 16  1  0  0  0  0
 13 17  1  0  0  0  0
 13 18  1  0  0  0  0
 13 19  1  0  0  0  0
 20 21  1  0  0  0  0
 20 45  1  0  0  0  0
 20 46  1  0  0  0  0
 20 47  1  0  0  0  0
 21 22  1  0  0  0  0
 21 28  1  0  0  0  0
 21 48  1  1  0  0  0
 22 23  2  0  0  0  0
 22 27  1  0  0  0  0
 23 24  1  0  0  0  0
 23 49  1  0  0  0  0
 24 25  2  0  0  0  0
 24 50  1  0  0  0  0
 25 26  1  0  0  0  0
 25 51  1  0  0  0  0
 26 27  2  0  0  0  0
 26 52  1  0  0  0  0
 27 53  1  0  0  0  0
 28 29  1  0  0  0  0
 28 44  1  0  0  0  0
 29 30  1  0  0  0  0
 29 43  2  0  0  0  0
 30 31  1  0  0  0  0
 31 32  2  0  0  0  0
 31 36  1  0  0  0  0
 32 33  1  0  0  0  0
 32 40  1  0  0  0  0
 33 34  2  0  0  0  0
 33 54  1  0  0  0  0
 34 35  1  0  0  0  0
 34 55  1  0  0  0  0
 35 36  2  0  0  0  0
 35 56  1  0  0  0  0
 36 37  1  0  0  0  0
 37 38  1  0  0  0  0
 37 39  1  0  0  0  0
 37 57  1  0  0  0  0
 38 58  1  0  0  0  0
 38 59  1  0  0  0  0
 38 60  1  0  0  0  0
 39 61  1  0  0  0  0
 39 62  1  0  0  0  0
 39 63  1  0  0  0  0
 40 41  1  0  0  0  0
 40 42  1  0  0  0  0
 40 64  1  0  0  0  0
 41 65  1  0  0  0  0
 41 66  1  0  0  0  0
 41 67  1  0  0  0  0
 42 68  1  0  0  0  0
 42 69  1  0  0  0  0
 42 70  1  0  0  0  0
 44 71  1  0  0  0  0
 44 72  1  0  0  0  0
 44 73  1  0  0  0  0
 74 75  1  0  0  0  0
 74 99  1  0  0  0  0
 74100  1  0  0  0  0
 74101  1  0  0  0  0
 75 76  1  0  0  0  0
 75 82  1  0  0  0  0
 75102  1  6  0  0  0
 76 77  2  0  0  0  0
 76 81  1  0  0  0  0
 77 78  1  0  0  0  0
 77103  1  0  0  0  0
 78 79  2  0  0  0  0
 78104  1  0  0  0  0
 79 80  1  0  0  0  0
 79105  1  0  0  0  0
 80 81  2  0  0  0  0
 80106  1  0  0  0  0
 81107  1  0  0  0  0
 82 83  1  0  0  0  0
 82 98  1  0  0  0  0
 83 84  1  0  0  0  0
 83 97  2  3  0  0  0
 84 85  1  0  0  0  0
 85 86  2  0  0  0  0
 85 90  1  0  0  0  0
 86 87  1  0  0  0  0
 86 94  1  0  0  0  0
 87 88  2  0  0  0  0
 87108  1  0  0  0  0
 88 89  1  0  0  0  0
 88109  1  0  0  0  0
 89 90  2  0  0  0  0
 89110  1  0  0  0  0
 90 91  1  0  0  0  0
 91 92  1  0  0  0  0
 91 93  1  0  0  0  0
 91111  1  0  0  0  0
 92112  1  0  0  0  0
 92113  1  0  0  0  0
 92114  1  0  0  0  0
 93115  1  0  0  0  0
 93116  1  0  0  0  0
 93117  1  0  0  0  0
 94 95  1  0  0  0  0
 94 96  1  0  0  0  0
 94118  1  0  0  0  0
 95119  1  0  0  0  0
 95120  1  0  0  0  0
 95121  1  0  0  0  0
 96122  1  0  0  0  0
 96123  1  0  0  0  0
 96124  1  0  0  0  0
 98125  1  0  0  0  0
 98126  1  0  0  0  0
 98127  1  0  0  0  0
M  END
>  <fileName>
/Users/dawn_mao/Desktop/PhD_research/chpt4_Ti_ureate/TM_catalyst_framework/src/TM_catalyst_framework/template/octahedral.sdf

$$$$
