XYZ file generated by Avogadro.
 OpenBabel11062522253D

 57 57  0  0  0  0  0  0  0  0999 V2000
    1.4818   -0.2579   -0.2410 Ti  0  0  0  0  0  0  0  0  0  0  0  0
    2.5851    1.4937   -0.3122 N   0  0  0  0  0  0  0  0  0  0  0  0
    3.7124    1.3095    0.6020 C   0  0  0  0  0  0  0  0  0  0  0  0
    3.0800    1.7525   -1.6633 C   0  0  0  0  0  0  0  0  0  0  0  0
    0.0828    0.5012   -1.6143 N   0  0  0  0  0  0  0  0  0  0  0  0
   -1.3344    0.1863   -1.3740 C   0  0  0  0  0  0  0  0  0  0  0  0
    0.4598   -0.0880   -2.9047 C   0  0  0  0  0  0  0  0  0  0  0  0
    0.7583    0.3736    1.6125 N   0  0  0  0  0  0  0  0  0  0  0  0
   -0.6037    0.8844    1.6692 C   0  0  0  0  0  0  0  0  0  0  0  0
    0.9651   -0.6921    2.5928 C   0  0  0  0  0  0  0  0  0  0  0  0
    0.5045   -1.9375   -0.1149 O   0  0  0  0  0  0  0  0  0  0  0  0
    1.8660   -3.1471   -1.7302 N   0  0  0  0  0  0  0  0  0  0  0  0
   -0.0241   -4.0825   -0.5376 N   0  0  0  0  0  0  0  0  0  0  0  0
    0.7605   -3.0792   -0.7959 C   0  0  0  0  0  0  0  0  0  0  0  0
    3.6016    0.8576   -2.0656 H   0  0  0  0  0  0  0  0  0  0  0  0
    2.2324    2.0258   -2.3202 H   0  0  0  0  0  0  0  0  0  0  0  0
    3.7744    2.6205   -1.6654 H   0  0  0  0  0  0  0  0  0  0  0  0
    3.3303    1.1310    1.6266 H   0  0  0  0  0  0  0  0  0  0  0  0
    4.3491    2.2197    0.6288 H   0  0  0  0  0  0  0  0  0  0  0  0
    4.3198    0.4295    0.2976 H   0  0  0  0  0  0  0  0  0  0  0  0
   -1.4734   -0.8721   -1.0787 H   0  0  0  0  0  0  0  0  0  0  0  0
   -1.7728    0.8648   -0.6305 H   0  0  0  0  0  0  0  0  0  0  0  0
   -1.9411    0.3775   -2.2868 H   0  0  0  0  0  0  0  0  0  0  0  0
    0.2153   -1.1702   -2.9322 H   0  0  0  0  0  0  0  0  0  0  0  0
   -0.0630    0.4311   -3.7364 H   0  0  0  0  0  0  0  0  0  0  0  0
    1.5487    0.0009   -3.0675 H   0  0  0  0  0  0  0  0  0  0  0  0
    0.7849   -0.3133    3.6216 H   0  0  0  0  0  0  0  0  0  0  0  0
    0.2895   -1.5504    2.3934 H   0  0  0  0  0  0  0  0  0  0  0  0
    2.0154   -1.0432    2.5294 H   0  0  0  0  0  0  0  0  0  0  0  0
   -1.3297    0.0879    1.4042 H   0  0  0  0  0  0  0  0  0  0  0  0
   -0.8353    1.2394    2.6964 H   0  0  0  0  0  0  0  0  0  0  0  0
   -0.6830    1.7688    1.0070 H   0  0  0  0  0  0  0  0  0  0  0  0
    0.0619   -5.4546   -0.9262 C   0  0  0  0  0  0  0  0  0  0  0  0
    1.2817   -6.1045   -1.2042 C   0  0  0  0  0  0  0  0  0  0  0  0
    1.2982   -7.4583   -1.5535 C   0  0  0  0  0  0  0  0  0  0  0  0
    0.1052   -8.1802   -1.6194 C   0  0  0  0  0  0  0  0  0  0  0  0
   -1.1066   -7.5508   -1.3288 C   0  0  0  0  0  0  0  0  0  0  0  0
   -1.1265   -6.1974   -0.9789 C   0  0  0  0  0  0  0  0  0  0  0  0
    1.6673   -3.7000   -2.9897 C   0  0  0  0  0  0  0  0  0  0  0  0
    2.5871   -3.8444   -3.7751 O   0  0  0  0  0  0  0  0  0  0  0  0
    0.4368   -4.0589   -3.4315 O   0  0  0  0  0  0  0  0  0  0  0  0
    3.1503   -2.5489   -1.2758 C   0  0  0  0  0  0  0  0  0  0  0  0
    3.6514   -3.2485   -0.0011 C   0  0  0  0  0  0  0  0  0  0  0  0
    4.3049   -2.5089   -2.2963 C   0  0  0  0  0  0  0  0  0  0  0  0
    2.2221   -5.5843   -1.1446 H   0  0  0  0  0  0  0  0  0  0  0  0
    2.2387   -7.9495   -1.7679 H   0  0  0  0  0  0  0  0  0  0  0  0
    0.1204   -9.2285   -1.8879 H   0  0  0  0  0  0  0  0  0  0  0  0
   -2.0311   -8.1119   -1.3717 H   0  0  0  0  0  0  0  0  0  0  0  0
   -2.0726   -5.7219   -0.7515 H   0  0  0  0  0  0  0  0  0  0  0  0
   -0.3923   -3.8674   -2.9766 H   0  0  0  0  0  0  0  0  0  0  0  0
    2.9735   -1.4919   -1.0306 H   0  0  0  0  0  0  0  0  0  0  0  0
    3.8986   -4.3099   -0.2080 H   0  0  0  0  0  0  0  0  0  0  0  0
    2.8885   -3.2053    0.8033 H   0  0  0  0  0  0  0  0  0  0  0  0
    4.5648   -2.7450    0.3811 H   0  0  0  0  0  0  0  0  0  0  0  0
    4.6412   -3.5316   -2.5707 H   0  0  0  0  0  0  0  0  0  0  0  0
    5.1789   -1.9819   -1.8567 H   0  0  0  0  0  0  0  0  0  0  0  0
    4.0074   -1.9349   -3.1997 H   0  0  0  0  0  0  0  0  0  0  0  0
  1 11  1  0  0  0  0
  1  8  1  0  0  0  0
  1  5  1  0  0  0  0
  1  2  1  0  0  0  0
  2  3  1  0  0  0  0
  2  4  1  0  0  0  0
  3 18  1  0  0  0  0
  3 20  1  0  0  0  0
  3 19  1  0  0  0  0
  4 15  1  0  0  0  0
  4 16  1  0  0  0  0
  4 17  1  0  0  0  0
  5  7  1  0  0  0  0
  5  6  1  0  0  0  0
  6 21  1  0  0  0  0
  6 22  1  0  0  0  0
  6 23  1  0  0  0  0
  7 24  1  0  0  0  0
  7 25  1  0  0  0  0
  7 26  1  0  0  0  0
  8  9  1  0  0  0  0
  8 10  1  0  0  0  0
  9 30  1  0  0  0  0
  9 31  1  0  0  0  0
  9 32  1  0  0  0  0
 10 28  1  0  0  0  0
 10 29  1  0  0  0  0
 10 27  1  0  0  0  0
 11 14  1  0  0  0  0
 12 14  1  0  0  0  0
 12 39  1  0  0  0  0
 12 42  1  0  0  0  0
 13 14  2  0  0  0  0
 13 33  1  0  0  0  0
 33 34  1  0  0  0  0
 33 38  2  0  0  0  0
 34 35  2  0  0  0  0
 34 45  1  0  0  0  0
 35 36  1  0  0  0  0
 35 46  1  0  0  0  0
 36 37  2  0  0  0  0
 36 47  1  0  0  0  0
 37 38  1  0  0  0  0
 37 48  1  0  0  0  0
 38 49  1  0  0  0  0
 39 40  2  0  0  0  0
 39 41  1  0  0  0  0
 41 50  1  0  0  0  0
 42 43  1  0  0  0  0
 42 44  1  0  0  0  0
 42 51  1  0  0  0  0
 43 52  1  0  0  0  0
 43 53  1  0  0  0  0
 43 54  1  0  0  0  0
 44 55  1  0  0  0  0
 44 56  1  0  0  0  0
 44 57  1  0  0  0  0
M  END
>  <fileName>
/Users/dawn_mao/Desktop/PhD_research/chpt4_Ti_ureate/TM_catalyst_framework/src/TM_catalyst_framework/template/u1_d1_iso1.cjson

>  <name>
XYZ file generated by Avogadro.

>  <totalCharge>
0

>  <totalSpinMultiplicity>
1

$$$$
