XYZ file generated by Avogadro.
 OpenBabel11062515163D

 60 59  0  0  0  0  0  0  0  0999 V2000
    1.0705    0.0502    0.0501 Ti  0  0  0  0  0  0  0  0  0  0  0  0
    1.0718    1.2259    1.8258 N   0  0  0  0  0  0  0  0  0  0  0  0
    0.1999    0.8119    2.9266 C   0  0  0  0  0  0  0  0  0  0  0  0
    1.3966    2.6609    1.8598 C   0  0  0  0  0  0  0  0  0  0  0  0
    1.0762   -1.6863    1.2451 N   0  0  0  0  0  0  0  0  0  0  0  0
    1.9475   -2.7404    0.7164 C   0  0  0  0  0  0  0  0  0  0  0  0
   -0.2700   -2.2396    1.4277 C   0  0  0  0  0  0  0  0  0  0  0  0
    1.0920    1.6638   -1.3188 N   0  0  0  0  0  0  0  0  0  0  0  0
    0.3019    1.3791   -2.5248 C   0  0  0  0  0  0  0  0  0  0  0  0
    2.4106    2.1695   -1.7214 C   0  0  0  0  0  0  0  0  0  0  0  0
    0.8705    0.7849   -3.2619 H   0  0  0  0  0  0  0  0  0  0  0  0
   -0.6077    0.8105   -2.2758 H   0  0  0  0  0  0  0  0  0  0  0  0
    3.0297    2.4158   -0.8432 H   0  0  0  0  0  0  0  0  0  0  0  0
    0.0052    2.3321   -3.0130 H   0  0  0  0  0  0  0  0  0  0  0  0
    2.9486    1.4297   -2.3489 H   0  0  0  0  0  0  0  0  0  0  0  0
    2.1371    2.8546    2.6645 H   0  0  0  0  0  0  0  0  0  0  0  0
    1.8222    2.9949    0.9014 H   0  0  0  0  0  0  0  0  0  0  0  0
    0.4997    3.2774    2.0854 H   0  0  0  0  0  0  0  0  0  0  0  0
    0.4335   -0.2269    3.2245 H   0  0  0  0  0  0  0  0  0  0  0  0
   -0.8641    0.9035    2.6272 H   0  0  0  0  0  0  0  0  0  0  0  0
    0.3797    1.4314    3.8329 H   0  0  0  0  0  0  0  0  0  0  0  0
    1.5664   -3.1183   -0.2535 H   0  0  0  0  0  0  0  0  0  0  0  0
    2.9805   -2.3738    0.6013 H   0  0  0  0  0  0  0  0  0  0  0  0
    1.9947   -3.5928    1.4280 H   0  0  0  0  0  0  0  0  0  0  0  0
   -0.6909   -2.5580    0.4516 H   0  0  0  0  0  0  0  0  0  0  0  0
   -0.2428   -3.1117    2.1162 H   0  0  0  0  0  0  0  0  0  0  0  0
   -0.9407   -1.4947    1.8955 H   0  0  0  0  0  0  0  0  0  0  0  0
    2.2936    3.1064   -2.3084 H   0  0  0  0  0  0  0  0  0  0  0  0
   -1.2327    3.0017   -0.1477 C   0  0  0  0  0  0  0  0  0  0  0  0
   -2.2913    2.0876   -0.4362 N   0  0  0  0  0  0  0  0  0  0  0  0
   -2.2948    0.7970   -0.3183 C   0  0  0  0  0  0  0  0  0  0  0  0
   -3.5461    0.1207   -0.5530 N   0  0  0  0  0  0  0  0  0  0  0  0
   -3.7045   -1.3001   -0.3024 C   0  0  0  0  0  0  0  0  0  0  0  0
   -4.7213    0.8378   -1.0385 C   0  0  0  0  0  0  0  0  0  0  0  0
   -1.1895    0.0502    0.0501 O   0  0  0  0  0  0  0  0  0  0  0  0
    3.9697    0.6584    1.2381 C   0  0  0  0  0  0  0  0  0  0  0  0
    3.3805    0.0502    0.0501 N   0  0  0  0  0  4  0  0  0  0  0  0
    4.1547   -0.4961   -0.8632 C   0  0  0  0  0  0  0  0  0  0  0  0
    3.6743   -1.2102   -2.0290 N   0  0  0  0  0  0  0  0  0  0  0  0
    4.6264   -1.7901   -2.9685 C   0  0  0  0  0  0  0  0  0  0  0  0
    2.2832   -1.4449   -2.3502 C   0  0  0  0  0  0  0  0  0  0  0  0
    5.4967   -0.4175   -0.7056 O   0  0  0  0  0  1  0  0  0  0  0  0
   -0.9319    3.5456   -1.0657 H   0  0  0  0  0  0  0  0  0  0  0  0
   -0.4088    2.4511    0.2662 H   0  0  0  0  0  0  0  0  0  0  0  0
   -1.5779    3.7355    0.6093 H   0  0  0  0  0  0  0  0  0  0  0  0
   -2.7826   -1.7669    0.0816 H   0  0  0  0  0  0  0  0  0  0  0  0
   -3.9926   -1.8191   -1.2407 H   0  0  0  0  0  0  0  0  0  0  0  0
   -4.5026   -1.4565    0.4556 H   0  0  0  0  0  0  0  0  0  0  0  0
   -4.5338    1.9165   -1.2213 H   0  0  0  0  0  0  0  0  0  0  0  0
   -5.5451    0.7610   -0.2973 H   0  0  0  0  0  0  0  0  0  0  0  0
   -5.0571    0.3963   -2.0004 H   0  0  0  0  0  0  0  0  0  0  0  0
    5.0748    0.5887    1.2941 H   0  0  0  0  0  0  0  0  0  0  0  0
    3.5658    0.1553    2.1407 H   0  0  0  0  0  0  0  0  0  0  0  0
    3.7348    1.7330    1.2723 H   0  0  0  0  0  0  0  0  0  0  0  0
    5.6841   -1.6074   -2.6943 H   0  0  0  0  0  0  0  0  0  0  0  0
    4.4648   -1.3611   -3.9801 H   0  0  0  0  0  0  0  0  0  0  0  0
    4.4811   -2.8909   -3.0171 H   0  0  0  0  0  0  0  0  0  0  0  0
    1.5993   -1.0067   -1.6276 H   0  0  0  0  0  0  0  0  0  0  0  0
    2.0876   -2.5363   -2.3934 H   0  0  0  0  0  0  0  0  0  0  0  0
    2.0647   -1.0355   -3.3558 H   0  0  0  0  0  0  0  0  0  0  0  0
  1  8  1  0  0  0  0
  1  5  1  0  0  0  0
  1  2  1  0  0  0  0
  1 35  1  0  0  0  0
  1 37  1  0  0  0  0
  2  3  1  0  0  0  0
  2  4  1  0  0  0  0
  3 19  1  0  0  0  0
  3 21  1  0  0  0  0
  3 20  1  0  0  0  0
  4 16  1  0  0  0  0
  4 17  1  0  0  0  0
  4 18  1  0  0  0  0
  5  7  1  0  0  0  0
  5  6  1  0  0  0  0
  6 22  1  0  0  0  0
  6 23  1  0  0  0  0
  6 24  1  0  0  0  0
  7 25  1  0  0  0  0
  7 26  1  0  0  0  0
  7 27  1  0  0  0  0
  8  9  1  0  0  0  0
  8 10  1  0  0  0  0
  9 14  1  0  0  0  0
  9 11  1  0  0  0  0
  9 12  1  0  0  0  0
 10 13  1  0  0  0  0
 10 15  1  0  0  0  0
 10 28  1  0  0  0  0
 29 30  1  0  0  0  0
 29 43  1  0  0  0  0
 29 44  1  0  0  0  0
 29 45  1  0  0  0  0
 30 31  2  0  0  0  0
 31 32  1  0  0  0  0
 31 35  1  0  0  0  0
 32 33  1  0  0  0  0
 32 34  1  0  0  0  0
 33 46  1  0  0  0  0
 33 47  1  0  0  0  0
 33 48  1  0  0  0  0
 34 49  1  0  0  0  0
 34 50  1  0  0  0  0
 34 51  1  0  0  0  0
 36 37  1  0  0  0  0
 36 52  1  0  0  0  0
 36 53  1  0  0  0  0
 36 54  1  0  0  0  0
 37 38  2  0  0  0  0
 38 39  1  0  0  0  0
 38 42  1  0  0  0  0
 39 40  1  0  0  0  0
 39 41  1  0  0  0  0
 40 55  1  0  0  0  0
 40 56  1  0  0  0  0
 40 57  1  0  0  0  0
 41 58  1  0  0  0  0
 41 59  1  0  0  0  0
 41 60  1  0  0  0  0
M  END
>  <fileName>
/Users/dawn_mao/Desktop/PhD_research/chpt4_Ti_ureate/TM_catalyst_framework/src/TM_catalyst_framework/metal_center_template/u1_d2_ON1.sdf

>  <name>
XYZ file generated by Avogadro.

>  <totalCharge>
0

>  <totalSpinMultiplicity>
1

$$$$
