XYZ file generated by Avogadro.
 OpenBabel11102501463D

 44 44  0  0  0  0  0  0  0  0999 V2000
    0.3497    0.8334   -0.0569 Ti  0  0  0  0  0  0  0  0  0  0  0  0
   -1.6620    0.3232    0.3626 N   0  0  0  0  0  0  0  0  0  0  0  0
   -2.3433   -0.0852   -0.8718 C   0  0  0  0  0  0  0  0  0  0  0  0
   -1.9126   -0.6991    1.3913 C   0  0  0  0  0  0  0  0  0  0  0  0
    0.5452    1.9459    1.7433 N   0  0  0  0  0  0  0  0  0  0  0  0
    1.7266    1.6253    2.5540 C   0  0  0  0  0  0  0  0  0  0  0  0
   -0.6426    2.1251    2.5819 C   0  0  0  0  0  0  0  0  0  0  0  0
    0.5143   -1.2487    0.0299 N   0  0  0  0  0  0  0  0  0  0  0  0
    1.2710   -1.7128    1.1986 C   0  0  0  0  0  0  0  0  0  0  0  0
    1.0788   -1.7889   -1.2079 C   0  0  0  0  0  0  0  0  0  0  0  0
    2.3230   -1.3599    1.1656 H   0  0  0  0  0  0  0  0  0  0  0  0
    0.7994   -1.3354    2.1238 H   0  0  0  0  0  0  0  0  0  0  0  0
    1.0150   -2.8985   -1.2030 H   0  0  0  0  0  0  0  0  0  0  0  0
    1.2571   -2.8223    1.2503 H   0  0  0  0  0  0  0  0  0  0  0  0
    0.4984   -1.4078   -2.0715 H   0  0  0  0  0  0  0  0  0  0  0  0
   -1.6980   -1.7251    1.0236 H   0  0  0  0  0  0  0  0  0  0  0  0
   -1.3068   -0.5224    2.2885 H   0  0  0  0  0  0  0  0  0  0  0  0
   -2.9820   -0.6651    1.6921 H   0  0  0  0  0  0  0  0  0  0  0  0
   -1.8697   -0.9944   -1.2993 H   0  0  0  0  0  0  0  0  0  0  0  0
   -2.3008    0.7149   -1.6225 H   0  0  0  0  0  0  0  0  0  0  0  0
   -3.4200   -0.2868   -0.6820 H   0  0  0  0  0  0  0  0  0  0  0  0
    1.6546    0.6012    2.9675 H   0  0  0  0  0  0  0  0  0  0  0  0
    1.8307    2.3478    3.3920 H   0  0  0  0  0  0  0  0  0  0  0  0
    2.6486    1.7140    1.9462 H   0  0  0  0  0  0  0  0  0  0  0  0
   -0.7840    1.2744    3.2760 H   0  0  0  0  0  0  0  0  0  0  0  0
   -0.5145    3.0331    3.2083 H   0  0  0  0  0  0  0  0  0  0  0  0
   -1.5399    2.2836    1.9539 H   0  0  0  0  0  0  0  0  0  0  0  0
    2.1408   -1.4857   -1.3281 H   0  0  0  0  0  0  0  0  0  0  0  0
    4.3615    2.3619   -1.0740 C   0  0  0  0  0  0  0  0  0  0  0  0
    2.9938    2.8009   -1.2123 N   0  0  0  0  0  0  0  0  0  0  0  0
    1.9992    2.0843   -0.8267 C   0  0  0  0  0  0  0  0  0  0  0  0
    0.3990    2.3501   -0.8516 N   0  0  0  0  0  4  0  0  0  0  0  0
   -0.0379    3.6509   -0.3347 C   0  0  0  0  0  0  0  0  0  0  0  0
   -0.0999    2.2186   -2.2110 C   0  0  0  0  0  0  0  0  0  0  0  0
    1.9043    0.7336   -0.1336 O   0  0  0  0  0  0  0  0  0  0  0  0
    4.9158    3.0843   -0.4407 H   0  0  0  0  0  0  0  0  0  0  0  0
    4.4284    1.3516   -0.6137 H   0  0  0  0  0  0  0  0  0  0  0  0
    4.8340    2.3273   -2.0777 H   0  0  0  0  0  0  0  0  0  0  0  0
    0.4489    3.9336    0.6155 H   0  0  0  0  0  0  0  0  0  0  0  0
    0.2541    4.4661   -1.0336 H   0  0  0  0  0  0  0  0  0  0  0  0
   -1.1415    3.6672   -0.2034 H   0  0  0  0  0  0  0  0  0  0  0  0
    0.1031    1.1964   -2.5932 H   0  0  0  0  0  0  0  0  0  0  0  0
   -1.1887    2.4214   -2.2656 H   0  0  0  0  0  0  0  0  0  0  0  0
    0.4043    2.9489   -2.8825 H   0  0  0  0  0  0  0  0  0  0  0  0
  1  8  1  0  0  0  0
  1  5  1  0  0  0  0
  1  2  1  0  0  0  0
  1 35  1  0  0  0  0
  1 32  1  0  0  0  0
  2  3  1  0  0  0  0
  2  4  1  0  0  0  0
  3 19  1  0  0  0  0
  3 21  1  0  0  0  0
  3 20  1  0  0  0  0
  4 16  1  0  0  0  0
  4 17  1  0  0  0  0
  4 18  1  0  0  0  0
  5  7  1  0  0  0  0
  5  6  1  0  0  0  0
  6 22  1  0  0  0  0
  6 23  1  0  0  0  0
  6 24  1  0  0  0  0
  7 25  1  0  0  0  0
  7 26  1  0  0  0  0
  7 27  1  0  0  0  0
  8  9  1  0  0  0  0
  8 10  1  0  0  0  0
  9 14  1  0  0  0  0
  9 11  1  0  0  0  0
  9 12  1  0  0  0  0
 10 13  1  0  0  0  0
 10 15  1  0  0  0  0
 10 28  1  0  0  0  0
 29 30  1  0  0  0  0
 29 36  1  0  0  0  0
 29 37  1  0  0  0  0
 29 38  1  0  0  0  0
 30 31  2  0  0  0  0
 31 32  1  0  0  0  0
 31 35  1  0  0  0  0
 32 33  1  0  0  0  0
 32 34  1  0  0  0  0
 33 39  1  0  0  0  0
 33 40  1  0  0  0  0
 33 41  1  0  0  0  0
 34 42  1  0  0  0  0
 34 43  1  0  0  0  0
 34 44  1  0  0  0  0
M  END
>  <fileName>
/Users/dawn_mao/Desktop/PhD_research/chpt4_Ti_ureate/TM_catalyst_framework/src/TM_catalyst_framework/metal_center_template/u1_d2_ON1.sdf

>  <name>
XYZ file generated by Avogadro.

>  <totalCharge>
0

>  <totalSpinMultiplicity>
1

$$$$
