XYZ file generated by Avogadro.
 OpenBabel11062515163D

 60 59  0  0  0  0  0  0  0  0999 V2000
    0.9257   -0.0532    0.0406 Ti  0  0  0  0  0  0  0  0  0  0  0  0
    0.9255   -1.2086   -1.7432 N   0  0  0  0  0  0  0  0  0  0  0  0
    0.1377   -0.7562   -2.9021 C   0  0  0  0  0  0  0  0  0  0  0  0
    2.1712   -1.8838   -2.1146 C   0  0  0  0  0  0  0  0  0  0  0  0
    0.8601    1.9275   -0.5993 N   0  0  0  0  0  0  0  0  0  0  0  0
    1.1941    2.7361    0.5733 C   0  0  0  0  0  0  0  0  0  0  0  0
   -0.4196    2.3728   -1.1572 C   0  0  0  0  0  0  0  0  0  0  0  0
    0.9295   -1.3405    1.7059 N   0  0  0  0  0  0  0  0  0  0  0  0
    0.1797   -0.6618    2.7633 C   0  0  0  0  0  0  0  0  0  0  0  0
    0.7400   -2.7907    1.7613 C   0  0  0  0  0  0  0  0  0  0  0  0
    0.4165   -1.0877    3.7615 H   0  0  0  0  0  0  0  0  0  0  0  0
    0.4607    0.4125    2.7702 H   0  0  0  0  0  0  0  0  0  0  0  0
   -0.3392   -3.0526    1.7364 H   0  0  0  0  0  0  0  0  0  0  0  0
   -0.9116   -0.7343    2.5703 H   0  0  0  0  0  0  0  0  0  0  0  0
    1.3107   -3.2869    0.9509 H   0  0  0  0  0  0  0  0  0  0  0  0
    2.9092   -1.1780   -2.5412 H   0  0  0  0  0  0  0  0  0  0  0  0
    2.6013   -2.3803   -1.2253 H   0  0  0  0  0  0  0  0  0  0  0  0
    1.9690   -2.6736   -2.8695 H   0  0  0  0  0  0  0  0  0  0  0  0
    0.6382    0.0337   -3.4910 H   0  0  0  0  0  0  0  0  0  0  0  0
   -0.8494   -0.3911   -2.5755 H   0  0  0  0  0  0  0  0  0  0  0  0
   -0.0481   -1.6075   -3.5899 H   0  0  0  0  0  0  0  0  0  0  0  0
    0.4239    2.6055    1.3652 H   0  0  0  0  0  0  0  0  0  0  0  0
    2.1683    2.4004    0.9829 H   0  0  0  0  0  0  0  0  0  0  0  0
    1.2769    3.8104    0.3017 H   0  0  0  0  0  0  0  0  0  0  0  0
   -1.2305    2.3303   -0.4022 H   0  0  0  0  0  0  0  0  0  0  0  0
   -0.3304    3.4234   -1.5086 H   0  0  0  0  0  0  0  0  0  0  0  0
   -0.6859    1.7606   -2.0345 H   0  0  0  0  0  0  0  0  0  0  0  0
    1.1370   -3.1721    2.7278 H   0  0  0  0  0  0  0  0  0  0  0  0
   -1.1412   -2.9462   -0.8512 C   0  0  0  0  0  0  0  0  0  0  0  0
   -2.2592   -2.0541   -0.8608 N   0  0  0  0  0  0  0  0  0  0  0  0
   -2.3707   -0.8266   -0.4519 C   0  0  0  0  0  0  0  0  0  0  0  0
   -3.6779   -0.2379   -0.5405 N   0  0  0  0  0  0  0  0  0  0  0  0
   -4.0023    0.9885    0.1603 C   0  0  0  0  0  0  0  0  0  0  0  0
   -4.7347   -0.8568   -1.3340 C   0  0  0  0  0  0  0  0  0  0  0  0
   -1.3343   -0.0532    0.0406 O   0  0  0  0  0  0  0  0  0  0  0  0
    3.6762   -0.9165    1.1361 C   0  0  0  0  0  0  0  0  0  0  0  0
    3.2357   -0.0532    0.0406 N   0  0  0  0  0  4  0  0  0  0  0  0
    4.1666    0.5903   -0.6580 C   0  0  0  0  0  0  0  0  0  0  0  0
    3.9542    1.5163   -1.7517 N   0  0  0  0  0  0  0  0  0  0  0  0
    5.0322    2.4033   -2.1737 C   0  0  0  0  0  0  0  0  0  0  0  0
    2.7687    1.5876   -2.5539 C   0  0  0  0  0  0  0  0  0  0  0  0
    5.4639    0.3998   -0.3181 O   0  0  0  0  0  1  0  0  0  0  0  0
   -1.4063   -3.8603   -0.2815 H   0  0  0  0  0  0  0  0  0  0  0  0
   -0.3043   -2.4765   -0.3708 H   0  0  0  0  0  0  0  0  0  0  0  0
   -0.8817   -3.2421   -1.8878 H   0  0  0  0  0  0  0  0  0  0  0  0
   -3.1533    1.3631    0.7665 H   0  0  0  0  0  0  0  0  0  0  0  0
   -4.8501    0.7961    0.8534 H   0  0  0  0  0  0  0  0  0  0  0  0
   -4.3010    1.7702   -0.5689 H   0  0  0  0  0  0  0  0  0  0  0  0
   -4.3984   -1.7714   -1.8682 H   0  0  0  0  0  0  0  0  0  0  0  0
   -5.0821   -0.1423   -2.1106 H   0  0  0  0  0  0  0  0  0  0  0  0
   -5.5886   -1.1344   -0.6820 H   0  0  0  0  0  0  0  0  0  0  0  0
    4.7717   -1.0046    1.2763 H   0  0  0  0  0  0  0  0  0  0  0  0
    3.3138   -1.9468    0.9636 H   0  0  0  0  0  0  0  0  0  0  0  0
    3.2722   -0.5266    2.0921 H   0  0  0  0  0  0  0  0  0  0  0  0
    5.9413    2.3197   -1.5451 H   0  0  0  0  0  0  0  0  0  0  0  0
    4.6912    3.4591   -2.1122 H   0  0  0  0  0  0  0  0  0  0  0  0
    5.3197    2.1784   -3.2231 H   0  0  0  0  0  0  0  0  0  0  0  0
    2.0670    0.8542   -2.2068 H   0  0  0  0  0  0  0  0  0  0  0  0
    3.0098    1.3497   -3.6115 H   0  0  0  0  0  0  0  0  0  0  0  0
    2.3360    2.6103   -2.5116 H   0  0  0  0  0  0  0  0  0  0  0  0
  1  8  1  0  0  0  0
  1  5  1  0  0  0  0
  1  2  1  0  0  0  0
  1 35  1  0  0  0  0
  1 37  1  0  0  0  0
  2  3  1  0  0  0  0
  2  4  1  0  0  0  0
  3 19  1  0  0  0  0
  3 21  1  0  0  0  0
  3 20  1  0  0  0  0
  4 16  1  0  0  0  0
  4 17  1  0  0  0  0
  4 18  1  0  0  0  0
  5  7  1  0  0  0  0
  5  6  1  0  0  0  0
  6 22  1  0  0  0  0
  6 23  1  0  0  0  0
  6 24  1  0  0  0  0
  7 25  1  0  0  0  0
  7 26  1  0  0  0  0
  7 27  1  0  0  0  0
  8  9  1  0  0  0  0
  8 10  1  0  0  0  0
  9 14  1  0  0  0  0
  9 11  1  0  0  0  0
  9 12  1  0  0  0  0
 10 13  1  0  0  0  0
 10 15  1  0  0  0  0
 10 28  1  0  0  0  0
 29 30  1  0  0  0  0
 29 43  1  0  0  0  0
 29 44  1  0  0  0  0
 29 45  1  0  0  0  0
 30 31  2  0  0  0  0
 31 32  1  0  0  0  0
 31 35  1  0  0  0  0
 32 33  1  0  0  0  0
 32 34  1  0  0  0  0
 33 46  1  0  0  0  0
 33 47  1  0  0  0  0
 33 48  1  0  0  0  0
 34 49  1  0  0  0  0
 34 50  1  0  0  0  0
 34 51  1  0  0  0  0
 36 37  1  0  0  0  0
 36 52  1  0  0  0  0
 36 53  1  0  0  0  0
 36 54  1  0  0  0  0
 37 38  2  0  0  0  0
 38 39  1  0  0  0  0
 38 42  1  0  0  0  0
 39 40  1  0  0  0  0
 39 41  1  0  0  0  0
 40 55  1  0  0  0  0
 40 56  1  0  0  0  0
 40 57  1  0  0  0  0
 41 58  1  0  0  0  0
 41 59  1  0  0  0  0
 41 60  1  0  0  0  0
M  END
>  <fileName>
/Users/dawn_mao/Desktop/PhD_research/chpt4_Ti_ureate/TM_catalyst_framework/src/TM_catalyst_framework/metal_center_template/u1_d2_ON1.sdf

>  <name>
XYZ file generated by Avogadro.

>  <totalCharge>
0

>  <totalSpinMultiplicity>
1

$$$$
