XYZ file generated by Avogadro.
 OpenBabel11062516363D

 44 43  0  0  0  0  0  0  0  0999 V2000
    0.3398    0.5649    0.3533 Ti  0  0  0  0  0  0  0  0  0  0  0  0
    0.0963   -1.0653   -0.9278 N   0  0  0  0  0  0  0  0  0  0  0  0
    1.2911   -1.8270   -1.2882 C   0  0  0  0  0  0  0  0  0  0  0  0
   -1.0736   -1.8942   -0.6470 C   0  0  0  0  0  0  0  0  0  0  0  0
    0.2008    1.7059   -1.3586 N   0  0  0  0  0  0  0  0  0  0  0  0
    0.8209    3.0090   -1.1160 C   0  0  0  0  0  0  0  0  0  0  0  0
   -1.2197    1.8723   -1.6603 C   0  0  0  0  0  0  0  0  0  0  0  0
    0.4458   -0.5076    2.1424 N   0  0  0  0  0  0  0  0  0  0  0  0
   -0.8880   -0.6919    2.7081 C   0  0  0  0  0  0  0  0  0  0  0  0
    1.2354   -1.7393    2.1616 C   0  0  0  0  0  0  0  0  0  0  0  0
   -0.8182   -1.0832    3.7457 H   0  0  0  0  0  0  0  0  0  0  0  0
   -1.4047    0.2891    2.7386 H   0  0  0  0  0  0  0  0  0  0  0  0
    0.7277   -2.5621    1.6295 H   0  0  0  0  0  0  0  0  0  0  0  0
   -1.4885   -1.3885    2.0917 H   0  0  0  0  0  0  0  0  0  0  0  0
    2.2324   -1.5598    1.7171 H   0  0  0  0  0  0  0  0  0  0  0  0
   -0.8896   -2.5952    0.1857 H   0  0  0  0  0  0  0  0  0  0  0  0
   -1.9326   -1.2392   -0.3956 H   0  0  0  0  0  0  0  0  0  0  0  0
   -1.3420   -2.4855   -1.5481 H   0  0  0  0  0  0  0  0  0  0  0  0
    1.7041   -2.3736   -0.4227 H   0  0  0  0  0  0  0  0  0  0  0  0
    2.0548   -1.1364   -1.6927 H   0  0  0  0  0  0  0  0  0  0  0  0
    1.0525   -2.5580   -2.0902 H   0  0  0  0  0  0  0  0  0  0  0  0
    0.3378    3.5206   -0.2562 H   0  0  0  0  0  0  0  0  0  0  0  0
    1.8967    2.8722   -0.8884 H   0  0  0  0  0  0  0  0  0  0  0  0
    0.7444    3.6481   -2.0219 H   0  0  0  0  0  0  0  0  0  0  0  0
   -1.7481    2.3372   -0.8000 H   0  0  0  0  0  0  0  0  0  0  0  0
   -1.3544    2.4958   -2.5704 H   0  0  0  0  0  0  0  0  0  0  0  0
   -1.6720    0.8791   -1.8529 H   0  0  0  0  0  0  0  0  0  0  0  0
    1.3945   -2.0626    3.2123 H   0  0  0  0  0  0  0  0  0  0  0  0
    1.6223    2.2493    2.4739 C   0  0  0  0  0  0  0  0  0  0  0  0
    2.8976    1.6420    2.1672 N   0  0  0  0  0  0  0  0  0  0  0  0
    3.2086    0.9246    1.1335 C   0  0  0  0  0  0  0  0  0  0  0  0
    4.5713    0.4945    0.9664 N   0  0  0  0  0  0  0  0  0  0  0  0
    4.9760   -0.2916   -0.1861 C   0  0  0  0  0  0  0  0  0  0  0  0
    5.6055    0.8312    1.9336 C   0  0  0  0  0  0  0  0  0  0  0  0
    2.2910    0.5867    0.1853 O   0  0  0  0  0  0  0  0  0  0  0  0
    1.7738    3.3377    2.6239 H   0  0  0  0  0  0  0  0  0  0  0  0
    1.2249    1.8176    3.4154 H   0  0  0  0  0  0  0  0  0  0  0  0
    0.8843    2.1349    1.6686 H   0  0  0  0  0  0  0  0  0  0  0  0
    4.1373   -0.4976   -0.8766 H   0  0  0  0  0  0  0  0  0  0  0  0
    5.3898   -1.2653    0.1516 H   0  0  0  0  0  0  0  0  0  0  0  0
    5.7570    0.2552   -0.7558 H   0  0  0  0  0  0  0  0  0  0  0  0
    5.2230    1.4331    2.7826 H   0  0  0  0  0  0  0  0  0  0  0  0
    6.4056    1.4186    1.4349 H   0  0  0  0  0  0  0  0  0  0  0  0
    6.0470   -0.0995    2.3483 H   0  0  0  0  0  0  0  0  0  0  0  0
  1  8  1  0  0  0  0
  1  5  1  0  0  0  0
  1  2  1  0  0  0  0
  1 35  1  0  0  0  0
  2  3  1  0  0  0  0
  2  4  1  0  0  0  0
  3 19  1  0  0  0  0
  3 21  1  0  0  0  0
  3 20  1  0  0  0  0
  4 16  1  0  0  0  0
  4 17  1  0  0  0  0
  4 18  1  0  0  0  0
  5  7  1  0  0  0  0
  5  6  1  0  0  0  0
  6 22  1  0  0  0  0
  6 23  1  0  0  0  0
  6 24  1  0  0  0  0
  7 25  1  0  0  0  0
  7 26  1  0  0  0  0
  7 27  1  0  0  0  0
  8  9  1  0  0  0  0
  8 10  1  0  0  0  0
  9 14  1  0  0  0  0
  9 11  1  0  0  0  0
  9 12  1  0  0  0  0
 10 13  1  0  0  0  0
 10 15  1  0  0  0  0
 10 28  1  0  0  0  0
 29 30  1  0  0  0  0
 29 36  1  0  0  0  0
 29 37  1  0  0  0  0
 29 38  1  0  0  0  0
 30 31  2  0  0  0  0
 31 32  1  0  0  0  0
 31 35  1  0  0  0  0
 32 33  1  0  0  0  0
 32 34  1  0  0  0  0
 33 39  1  0  0  0  0
 33 40  1  0  0  0  0
 33 41  1  0  0  0  0
 34 42  1  0  0  0  0
 34 43  1  0  0  0  0
 34 44  1  0  0  0  0
M  END
>  <fileName>
/Users/dawn_mao/Desktop/PhD_research/chpt4_Ti_ureate/TM_catalyst_framework/src/TM_catalyst_framework/metal_center_template/u1_d1.sdf

>  <name>
XYZ file generated by Avogadro.

>  <totalCharge>
0

>  <totalSpinMultiplicity>
1

$$$$
