XYZ file generated by Avogadro.
 OpenBabel11102501373D

 44 43  0  0  0  0  0  0  0  0999 V2000
    1.7448   -0.2736    1.0616 Ti  0  0  0  0  0  0  0  0  0  0  0  0
    3.3543   -0.0439    0.0782 N   0  0  0  0  0  0  0  0  0  0  0  0
    3.3246    0.9222   -1.0260 C   0  0  0  0  0  0  0  0  0  0  0  0
    4.4259    0.2875    1.0153 C   0  0  0  0  0  0  0  0  0  0  0  0
    0.2743   -0.5541    2.1955 N   0  0  0  0  0  0  0  0  0  0  0  0
   -1.0796   -0.3765    1.6596 C   0  0  0  0  0  0  0  0  0  0  0  0
    0.4147    0.0381    3.5245 C   0  0  0  0  0  0  0  0  0  0  0  0
    1.0699   -1.8684   -0.1951 N   0  0  0  0  0  0  0  0  0  0  0  0
    0.5150   -1.4771   -1.4935 C   0  0  0  0  0  0  0  0  0  0  0  0
    2.1358   -2.8555   -0.3574 C   0  0  0  0  0  0  0  0  0  0  0  0
    1.2994   -1.1023   -2.1773 H   0  0  0  0  0  0  0  0  0  0  0  0
    0.0266   -2.3550   -1.9687 H   0  0  0  0  0  0  0  0  0  0  0  0
    2.9692   -2.4402   -0.9632 H   0  0  0  0  0  0  0  0  0  0  0  0
   -0.2640   -0.7051   -1.3619 H   0  0  0  0  0  0  0  0  0  0  0  0
    2.5268   -3.1352    0.6420 H   0  0  0  0  0  0  0  0  0  0  0  0
    4.2936    1.3090    1.4246 H   0  0  0  0  0  0  0  0  0  0  0  0
    4.4108   -0.4328    1.8576 H   0  0  0  0  0  0  0  0  0  0  0  0
    5.4136    0.2250    0.5104 H   0  0  0  0  0  0  0  0  0  0  0  0
    3.1283    1.9496   -0.6572 H   0  0  0  0  0  0  0  0  0  0  0  0
    2.5433    0.6484   -1.7561 H   0  0  0  0  0  0  0  0  0  0  0  0
    4.2935    0.9085   -1.5701 H   0  0  0  0  0  0  0  0  0  0  0  0
   -1.3143    0.6920    1.4939 H   0  0  0  0  0  0  0  0  0  0  0  0
   -1.1973   -0.9407    0.7180 H   0  0  0  0  0  0  0  0  0  0  0  0
   -1.8263   -0.7839    2.3746 H   0  0  0  0  0  0  0  0  0  0  0  0
    0.1619    1.1180    3.5079 H   0  0  0  0  0  0  0  0  0  0  0  0
   -0.2707   -0.4655    4.2388 H   0  0  0  0  0  0  0  0  0  0  0  0
    1.4541   -0.1050    3.8845 H   0  0  0  0  0  0  0  0  0  0  0  0
    1.7429   -3.7702   -0.8513 H   0  0  0  0  0  0  0  0  0  0  0  0
   -0.7540    2.3350   -1.8429 C   0  0  0  0  0  0  0  0  0  0  0  0
   -0.4221    2.9065   -0.5566 N   0  0  0  0  0  0  0  0  0  0  0  0
    0.3275    2.3134    0.3095 C   0  0  0  0  0  0  0  0  0  0  0  0
    0.6616    2.9952    1.5196 N   0  0  0  0  0  0  0  0  0  0  0  0
    1.9366    2.7452    2.1711 C   0  0  0  0  0  0  0  0  0  0  0  0
   -0.2334    4.0199    2.0304 C   0  0  0  0  0  0  0  0  0  0  0  0
    0.8023    1.0700    0.0248 O   0  0  0  0  0  0  0  0  0  0  0  0
   -1.3634    3.0592   -2.4188 H   0  0  0  0  0  0  0  0  0  0  0  0
   -1.3327    1.3975   -1.7112 H   0  0  0  0  0  0  0  0  0  0  0  0
    0.1766    2.1262   -2.4165 H   0  0  0  0  0  0  0  0  0  0  0  0
    2.7506    3.0485    1.4845 H   0  0  0  0  0  0  0  0  0  0  0  0
    2.0659    1.6797    2.4104 H   0  0  0  0  0  0  0  0  0  0  0  0
    2.0460    3.3360    3.1038 H   0  0  0  0  0  0  0  0  0  0  0  0
   -1.2211    3.5646    2.2621 H   0  0  0  0  0  0  0  0  0  0  0  0
   -0.3739    4.8196    1.2721 H   0  0  0  0  0  0  0  0  0  0  0  0
    0.1532    4.4906    2.9585 H   0  0  0  0  0  0  0  0  0  0  0  0
  1  8  1  0  0  0  0
  1  5  1  0  0  0  0
  1  2  1  0  0  0  0
  1 35  1  0  0  0  0
  2  3  1  0  0  0  0
  2  4  1  0  0  0  0
  3 19  1  0  0  0  0
  3 21  1  0  0  0  0
  3 20  1  0  0  0  0
  4 16  1  0  0  0  0
  4 17  1  0  0  0  0
  4 18  1  0  0  0  0
  5  7  1  0  0  0  0
  5  6  1  0  0  0  0
  6 22  1  0  0  0  0
  6 23  1  0  0  0  0
  6 24  1  0  0  0  0
  7 25  1  0  0  0  0
  7 26  1  0  0  0  0
  7 27  1  0  0  0  0
  8  9  1  0  0  0  0
  8 10  1  0  0  0  0
  9 14  1  0  0  0  0
  9 11  1  0  0  0  0
  9 12  1  0  0  0  0
 10 13  1  0  0  0  0
 10 15  1  0  0  0  0
 10 28  1  0  0  0  0
 29 30  1  0  0  0  0
 29 36  1  0  0  0  0
 29 37  1  0  0  0  0
 29 38  1  0  0  0  0
 30 31  2  0  0  0  0
 31 32  1  0  0  0  0
 31 35  1  0  0  0  0
 32 33  1  0  0  0  0
 32 34  1  0  0  0  0
 33 39  1  0  0  0  0
 33 40  1  0  0  0  0
 33 41  1  0  0  0  0
 34 42  1  0  0  0  0
 34 43  1  0  0  0  0
 34 44  1  0  0  0  0
M  END
>  <fileName>
/Users/dawn_mao/Desktop/PhD_research/chpt4_Ti_ureate/TM_catalyst_framework/src/TM_catalyst_framework/metal_center_template/u1_d1.sdf

>  <name>
XYZ file generated by Avogadro.

>  <totalCharge>
0

>  <totalSpinMultiplicity>
1

$$$$
