XYZ file generated by Avogadro.
 OpenBabel11102501463D

 44 44  0  0  0  0  0  0  0  0999 V2000
    0.4615   -0.1555    0.6352 Ti  0  0  0  0  0  0  0  0  0  0  0  0
   -1.4980    0.5325    0.5531 N   0  0  0  0  0  0  0  0  0  0  0  0
   -2.3717   -0.6260    0.7420 C   0  0  0  0  0  0  0  0  0  0  0  0
   -1.8304    1.2180   -0.6947 C   0  0  0  0  0  0  0  0  0  0  0  0
    1.2801    1.4068   -0.5564 N   0  0  0  0  0  0  0  0  0  0  0  0
    1.3638    1.2501   -2.0129 C   0  0  0  0  0  0  0  0  0  0  0  0
    2.5685    1.8654   -0.0249 C   0  0  0  0  0  0  0  0  0  0  0  0
    0.4203    0.9959    2.3843 N   0  0  0  0  0  0  0  0  0  0  0  0
   -0.2133    2.3181    2.3110 C   0  0  0  0  0  0  0  0  0  0  0  0
   -0.0719    0.2198    3.5217 C   0  0  0  0  0  0  0  0  0  0  0  0
    0.0849    2.9236    3.1932 H   0  0  0  0  0  0  0  0  0  0  0  0
    0.1231    2.8504    1.3999 H   0  0  0  0  0  0  0  0  0  0  0  0
   -1.1561    0.0150    3.4192 H   0  0  0  0  0  0  0  0  0  0  0  0
   -1.3212    2.2439    2.3074 H   0  0  0  0  0  0  0  0  0  0  0  0
    0.4739   -0.7449    3.5694 H   0  0  0  0  0  0  0  0  0  0  0  0
   -1.1997    2.1213   -0.8041 H   0  0  0  0  0  0  0  0  0  0  0  0
   -1.6897    0.5449   -1.5641 H   0  0  0  0  0  0  0  0  0  0  0  0
   -2.8887    1.5574   -0.6725 H   0  0  0  0  0  0  0  0  0  0  0  0
   -3.4279   -0.3029    0.8567 H   0  0  0  0  0  0  0  0  0  0  0  0
   -2.0672   -1.1729    1.6557 H   0  0  0  0  0  0  0  0  0  0  0  0
   -2.2899   -1.3270   -0.1125 H   0  0  0  0  0  0  0  0  0  0  0  0
    2.0221    0.3995   -2.2858 H   0  0  0  0  0  0  0  0  0  0  0  0
    0.3560    1.1296   -2.4427 H   0  0  0  0  0  0  0  0  0  0  0  0
    1.7693    2.1759   -2.4780 H   0  0  0  0  0  0  0  0  0  0  0  0
    3.3565    1.1020   -0.1972 H   0  0  0  0  0  0  0  0  0  0  0  0
    2.8696    2.8233   -0.5030 H   0  0  0  0  0  0  0  0  0  0  0  0
    2.4824    2.0531    1.0631 H   0  0  0  0  0  0  0  0  0  0  0  0
    0.1115    0.7687    4.4700 H   0  0  0  0  0  0  0  0  0  0  0  0
    0.1343   -1.7697   -1.8304 C   0  0  0  0  0  0  0  0  0  0  0  0
    0.7347   -1.2144   -0.6353 N   0  0  0  0  0  4  0  0  0  0  0  0
    1.9878   -1.5067    0.1040 C   0  0  0  0  0  0  0  0  0  0  0  0
    3.0272   -2.4623   -0.0790 N   0  0  0  0  0  0  0  0  0  0  0  0
    4.1359   -2.4461    0.8543 C   0  0  0  0  0  0  0  0  0  0  0  0
    2.9354   -3.4813   -1.1046 C   0  0  0  0  0  0  0  0  0  0  0  0
    1.7187   -0.5309    1.2237 O   0  0  0  0  0  0  0  0  0  0  0  0
   -0.0961   -0.9843   -2.5687 H   0  0  0  0  0  0  0  0  0  0  0  0
   -0.8054   -2.2906   -1.5681 H   0  0  0  0  0  0  0  0  0  0  0  0
    0.8051   -2.4935   -2.3192 H   0  0  0  0  0  0  0  0  0  0  0  0
    4.6376   -1.4555    0.8199 H   0  0  0  0  0  0  0  0  0  0  0  0
    4.8919   -3.2226    0.6128 H   0  0  0  0  0  0  0  0  0  0  0  0
    3.7618   -2.6289    1.8840 H   0  0  0  0  0  0  0  0  0  0  0  0
    1.9919   -4.0543   -0.9668 H   0  0  0  0  0  0  0  0  0  0  0  0
    3.7702   -4.2096   -1.0358 H   0  0  0  0  0  0  0  0  0  0  0  0
    2.9640   -3.0193   -2.1107 H   0  0  0  0  0  0  0  0  0  0  0  0
  1  8  1  0  0  0  0
  1  5  1  0  0  0  0
  1  2  1  0  0  0  0
  1 35  1  0  0  0  0
  1 30  1  0  0  0  0
  2  3  1  0  0  0  0
  2  4  1  0  0  0  0
  3 19  1  0  0  0  0
  3 21  1  0  0  0  0
  3 20  1  0  0  0  0
  4 16  1  0  0  0  0
  4 17  1  0  0  0  0
  4 18  1  0  0  0  0
  5  7  1  0  0  0  0
  5  6  1  0  0  0  0
  6 22  1  0  0  0  0
  6 23  1  0  0  0  0
  6 24  1  0  0  0  0
  7 25  1  0  0  0  0
  7 26  1  0  0  0  0
  7 27  1  0  0  0  0
  8  9  1  0  0  0  0
  8 10  1  0  0  0  0
  9 14  1  0  0  0  0
  9 11  1  0  0  0  0
  9 12  1  0  0  0  0
 10 13  1  0  0  0  0
 10 15  1  0  0  0  0
 10 28  1  0  0  0  0
 29 30  1  0  0  0  0
 29 36  1  0  0  0  0
 29 37  1  0  0  0  0
 29 38  1  0  0  0  0
 30 31  2  0  0  0  0
 31 32  1  0  0  0  0
 31 35  1  0  0  0  0
 32 33  1  0  0  0  0
 32 34  1  0  0  0  0
 33 39  1  0  0  0  0
 33 40  1  0  0  0  0
 33 41  1  0  0  0  0
 34 42  1  0  0  0  0
 34 43  1  0  0  0  0
 34 44  1  0  0  0  0
M  END
>  <fileName>
/Users/dawn_mao/Desktop/PhD_research/chpt4_Ti_ureate/TM_catalyst_framework/src/TM_catalyst_framework/metal_center_template/u1_d2_ON1.sdf

>  <name>
XYZ file generated by Avogadro.

>  <totalCharge>
0

>  <totalSpinMultiplicity>
1

$$$$
