XYZ file generated by Avogadro.
 OpenBabel11132516163D

 44 44  0  0  0  0  0  0  0  0999 V2000
   -0.1021    3.0327    0.8090 Ti  0  0  0  0  0  0  0  0  0  0  0  0
   -3.1843    1.2443    4.1535 C   0  0  0  0  0  0  0  0  0  0  0  0
   -3.0874    1.8210    2.8292 N   0  0  0  0  0  0  0  0  0  0  0  0
   -2.0267    2.2775    2.2430 C   0  0  0  0  0  0  0  0  0  0  0  0
   -0.6641    2.3281    2.7111 N   0  0  0  0  0  4  0  0  0  0  0  0
   -0.5715    3.4186    3.6861 C   0  0  0  0  0  0  0  0  0  0  0  0
   -0.0775    1.1065    3.3020 C   0  0  0  0  0  0  0  0  0  0  0  0
   -2.0197    2.8363    1.0077 O   0  0  0  0  0  0  0  0  0  0  0  0
   -2.2341    1.2535    4.7130 H   0  0  0  0  0  0  0  0  0  0  0  0
   -3.5360    0.1956    4.0678 H   0  0  0  0  0  0  0  0  0  0  0  0
   -3.9273    1.8198    4.7424 H   0  0  0  0  0  0  0  0  0  0  0  0
    0.4962    3.6532    3.8882 H   0  0  0  0  0  0  0  0  0  0  0  0
   -1.0625    3.1619    4.6487 H   0  0  0  0  0  0  0  0  0  0  0  0
   -1.0598    4.3468    3.3309 H   0  0  0  0  0  0  0  0  0  0  0  0
    0.8798    0.8196    2.8420 H   0  0  0  0  0  0  0  0  0  0  0  0
    0.2086    1.2326    4.3715 H   0  0  0  0  0  0  0  0  0  0  0  0
   -0.7775    0.2460    3.2471 H   0  0  0  0  0  0  0  0  0  0  0  0
   -0.5603    5.0586    1.0908 N   0  0  0  0  0  0  0  0  0  0  0  0
   -1.4563    5.6790    0.1063 C   0  0  0  0  0  0  0  0  0  0  0  0
    0.6478    5.8554    1.2978 C   0  0  0  0  0  0  0  0  0  0  0  0
   -2.3451    5.0408   -0.0619 H   0  0  0  0  0  0  0  0  0  0  0  0
   -0.9446    5.8532   -0.8628 H   0  0  0  0  0  0  0  0  0  0  0  0
   -1.8102    6.6600    0.4891 H   0  0  0  0  0  0  0  0  0  0  0  0
    1.2950    5.3473    2.0415 H   0  0  0  0  0  0  0  0  0  0  0  0
    0.3801    6.8582    1.6941 H   0  0  0  0  0  0  0  0  0  0  0  0
    1.2120    5.9809    0.3522 H   0  0  0  0  0  0  0  0  0  0  0  0
    0.3971    3.7790   -1.0696 N   0  0  0  0  0  0  0  0  0  0  0  0
    1.8295    3.8224   -1.3622 C   0  0  0  0  0  0  0  0  0  0  0  0
   -0.3786    3.1905   -2.1576 C   0  0  0  0  0  0  0  0  0  0  0  0
    2.0210    4.5726   -2.1584 H   0  0  0  0  0  0  0  0  0  0  0  0
    2.2080    2.8500   -1.7212 H   0  0  0  0  0  0  0  0  0  0  0  0
    2.3893    4.1174   -0.4523 H   0  0  0  0  0  0  0  0  0  0  0  0
   -1.4449    3.1316   -1.8575 H   0  0  0  0  0  0  0  0  0  0  0  0
   -0.0068    2.1803   -2.4108 H   0  0  0  0  0  0  0  0  0  0  0  0
   -0.3018    3.8294   -3.0628 H   0  0  0  0  0  0  0  0  0  0  0  0
    0.4938    1.0426    0.6307 N   0  0  0  0  0  0  0  0  0  0  0  0
    1.8866    0.8480    0.2394 C   0  0  0  0  0  0  0  0  0  0  0  0
   -0.4248    0.1992   -0.1345 C   0  0  0  0  0  0  0  0  0  0  0  0
    2.0066    0.9018   -0.8588 H   0  0  0  0  0  0  0  0  0  0  0  0
    2.2245   -0.1579    0.5673 H   0  0  0  0  0  0  0  0  0  0  0  0
    2.5193    1.6102    0.7387 H   0  0  0  0  0  0  0  0  0  0  0  0
   -1.4656    0.3836    0.1956 H   0  0  0  0  0  0  0  0  0  0  0  0
   -0.1916   -0.8716    0.0470 H   0  0  0  0  0  0  0  0  0  0  0  0
   -0.3507    0.3962   -1.2187 H   0  0  0  0  0  0  0  0  0  0  0  0
  1  8  1  0  0  0  0
  1  5  1  0  0  0  0
  1 18  1  0  0  0  0
  1 27  1  0  0  0  0
  1 36  1  0  0  0  0
  2  3  1  0  0  0  0
  2  9  1  0  0  0  0
  2 10  1  0  0  0  0
  2 11  1  0  0  0  0
  3  4  2  0  0  0  0
  4  5  1  0  0  0  0
  4  8  1  0  0  0  0
  5  6  1  0  0  0  0
  5  7  1  0  0  0  0
  6 12  1  0  0  0  0
  6 13  1  0  0  0  0
  6 14  1  0  0  0  0
  7 15  1  0  0  0  0
  7 16  1  0  0  0  0
  7 17  1  0  0  0  0
 18 19  1  0  0  0  0
 18 20  1  0  0  0  0
 19 21  1  0  0  0  0
 19 22  1  0  0  0  0
 19 23  1  0  0  0  0
 20 24  1  0  0  0  0
 20 25  1  0  0  0  0
 20 26  1  0  0  0  0
 27 28  1  0  0  0  0
 27 29  1  0  0  0  0
 28 30  1  0  0  0  0
 28 31  1  0  0  0  0
 28 32  1  0  0  0  0
 29 33  1  0  0  0  0
 29 34  1  0  0  0  0
 29 35  1  0  0  0  0
 36 37  1  0  0  0  0
 36 38  1  0  0  0  0
 37 39  1  0  0  0  0
 37 40  1  0  0  0  0
 37 41  1  0  0  0  0
 38 42  1  0  0  0  0
 38 43  1  0  0  0  0
 38 44  1  0  0  0  0
M  END
>  <fileName>
/Users/dawn_mao/Desktop/PhD_research/chpt4_Ti_ureate/TM_catalyst_framework/src/TM_catalyst_framework/template/u1_d2_ON2.sdf

>  <name>
XYZ file generated by Avogadro.

>  <totalCharge>
0

>  <totalSpinMultiplicity>
1

$$$$
