
 OpenBabel11132516153D

 44 43  0  0  0  0  0  0  0  0999 V2000
   -0.8335    3.5946    0.8641 Ti  0  0  0  0  0  0  0  0  0  0  0  0
   -2.2002    0.1687   -2.0968 C   0  0  0  0  0  0  0  0  0  0  0  0
   -2.0875    1.2168   -1.1080 N   0  0  0  0  0  0  0  0  0  0  0  0
   -2.8960    1.5756   -0.1601 C   0  0  0  0  0  0  0  0  0  0  0  0
   -4.1629    0.9279    0.1432 N   0  0  0  0  0  0  0  0  0  0  0  0
   -4.6653   -0.2601   -0.5288 C   0  0  0  0  0  0  0  0  0  0  0  0
   -4.9938    1.4495    1.2205 C   0  0  0  0  0  0  0  0  0  0  0  0
   -2.5379    2.6342    0.6084 O   0  0  0  0  0  0  0  0  0  0  0  0
   -1.2989    0.2025   -2.7427 H   0  0  0  0  0  0  0  0  0  0  0  0
   -2.2180   -0.8298   -1.6240 H   0  0  0  0  0  0  0  0  0  0  0  0
   -3.0686    0.3485   -2.7605 H   0  0  0  0  0  0  0  0  0  0  0  0
   -5.6406   -0.5820   -0.1001 H   0  0  0  0  0  0  0  0  0  0  0  0
   -4.8543   -0.0567   -1.5989 H   0  0  0  0  0  0  0  0  0  0  0  0
   -3.9715   -1.1093   -0.3786 H   0  0  0  0  0  0  0  0  0  0  0  0
   -4.5695    2.3488    1.7103 H   0  0  0  0  0  0  0  0  0  0  0  0
   -5.1213    0.6722    2.0034 H   0  0  0  0  0  0  0  0  0  0  0  0
   -5.9945    1.7284    0.8209 H   0  0  0  0  0  0  0  0  0  0  0  0
    0.8185    4.7770    1.2997 N   0  0  0  0  0  0  0  0  0  0  0  0
    0.7053    6.0610    0.5968 C   0  0  0  0  0  0  0  0  0  0  0  0
    0.6885    5.0623    2.7354 C   0  0  0  0  0  0  0  0  0  0  0  0
    1.1015    5.9811   -0.4222 H   0  0  0  0  0  0  0  0  0  0  0  0
    1.3235    6.8494    1.0824 H   0  0  0  0  0  0  0  0  0  0  0  0
   -0.3564    6.3908    0.5669 H   0  0  0  0  0  0  0  0  0  0  0  0
    1.5767    5.6188    3.1041 H   0  0  0  0  0  0  0  0  0  0  0  0
    0.5947    4.1319    3.3149 H   0  0  0  0  0  0  0  0  0  0  0  0
   -0.2361    5.6474    2.9408 H   0  0  0  0  0  0  0  0  0  0  0  0
    0.0364    1.8316    1.5932 N   0  0  0  0  0  0  0  0  0  0  0  0
    1.4777    1.8922    1.8805 C   0  0  0  0  0  0  0  0  0  0  0  0
   -0.6947    1.3524    2.7668 C   0  0  0  0  0  0  0  0  0  0  0  0
    2.0130    2.4674    1.1076 H   0  0  0  0  0  0  0  0  0  0  0  0
    1.8932    0.8627    1.8930 H   0  0  0  0  0  0  0  0  0  0  0  0
    1.6959    2.3496    2.8647 H   0  0  0  0  0  0  0  0  0  0  0  0
   -1.7551    1.1753    2.5028 H   0  0  0  0  0  0  0  0  0  0  0  0
   -0.6552    2.1030    3.5836 H   0  0  0  0  0  0  0  0  0  0  0  0
   -0.2716    0.3878    3.1224 H   0  0  0  0  0  0  0  0  0  0  0  0
   -0.2392    3.1429   -1.1091 N   0  0  0  0  0  0  0  0  0  0  0  0
   -0.1651    4.2742   -2.0299 C   0  0  0  0  0  0  0  0  0  0  0  0
    0.8483    2.1868   -1.3331 C   0  0  0  0  0  0  0  0  0  0  0  0
   -0.8916    5.0546   -1.7277 H   0  0  0  0  0  0  0  0  0  0  0  0
   -0.4137    3.9341   -3.0570 H   0  0  0  0  0  0  0  0  0  0  0  0
    0.8642    4.6855   -2.0713 H   0  0  0  0  0  0  0  0  0  0  0  0
    0.6702    1.2592   -0.7556 H   0  0  0  0  0  0  0  0  0  0  0  0
    1.8282    2.6342   -1.0749 H   0  0  0  0  0  0  0  0  0  0  0  0
    0.8730    1.8855   -2.4030 H   0  0  0  0  0  0  0  0  0  0  0  0
  1  8  1  0  0  0  0
  1 18  1  0  0  0  0
  1 27  1  0  0  0  0
  1 36  1  0  0  0  0
  2  3  1  0  0  0  0
  2  9  1  0  0  0  0
  2 10  1  0  0  0  0
  2 11  1  0  0  0  0
  3  4  2  0  0  0  0
  4  5  1  0  0  0  0
  4  8  1  0  0  0  0
  5  6  1  0  0  0  0
  5  7  1  0  0  0  0
  6 12  1  0  0  0  0
  6 13  1  0  0  0  0
  6 14  1  0  0  0  0
  7 15  1  0  0  0  0
  7 16  1  0  0  0  0
  7 17  1  0  0  0  0
 18 19  1  0  0  0  0
 18 20  1  0  0  0  0
 19 21  1  0  0  0  0
 19 22  1  0  0  0  0
 19 23  1  0  0  0  0
 20 24  1  0  0  0  0
 20 25  1  0  0  0  0
 20 26  1  0  0  0  0
 27 28  1  0  0  0  0
 27 29  1  0  0  0  0
 28 30  1  0  0  0  0
 28 31  1  0  0  0  0
 28 32  1  0  0  0  0
 29 33  1  0  0  0  0
 29 34  1  0  0  0  0
 29 35  1  0  0  0  0
 36 37  1  0  0  0  0
 36 38  1  0  0  0  0
 37 39  1  0  0  0  0
 37 40  1  0  0  0  0
 37 41  1  0  0  0  0
 38 42  1  0  0  0  0
 38 43  1  0  0  0  0
 38 44  1  0  0  0  0
M  END
$$$$
