XYZ file generated by Avogadro.
 OpenBabel11062516433D

 44 44  0  0  0  0  0  0  0  0999 V2000
   -0.0353    0.8341   -0.0300 Ti  0  0  0  0  0  0  0  0  0  0  0  0
   -0.1265    0.6155    2.0837 N   0  0  0  0  0  0  0  0  0  0  0  0
   -0.7135   -0.7734    2.3217 C   0  0  0  0  0  0  0  0  0  0  0  0
    0.3532    1.0565    3.3545 C   0  0  0  0  0  0  0  0  0  0  0  0
   -0.4825    0.8896   -2.1476 N   0  0  0  0  0  0  0  0  0  0  0  0
    0.5009    1.1392   -3.1756 C   0  0  0  0  0  0  0  0  0  0  0  0
   -1.8409    1.2648   -2.5924 C   0  0  0  0  0  0  0  0  0  0  0  0
    1.8810    1.8975    0.3189 N   0  0  0  0  0  0  0  0  0  0  0  0
    2.0008    3.1740   -0.4589 C   0  0  0  0  0  0  0  0  0  0  0  0
    2.5130    2.1646    1.6123 C   0  0  0  0  0  0  0  0  0  0  0  0
    3.0262    3.6381   -0.4098 H   0  0  0  0  0  0  0  0  0  0  0  0
    1.8255    3.0606   -1.5426 H   0  0  0  0  0  0  0  0  0  0  0  0
    1.8960    2.8856    2.1737 H   0  0  0  0  0  0  0  0  0  0  0  0
    1.3193    3.9498   -0.0544 H   0  0  0  0  0  0  0  0  0  0  0  0
    2.7500    1.2243    2.1247 H   0  0  0  0  0  0  0  0  0  0  0  0
    1.2960    0.5095    3.5155 H   0  0  0  0  0  0  0  0  0  0  0  0
    0.3303    2.1472    3.3669 H   0  0  0  0  0  0  0  0  0  0  0  0
   -0.3597    0.7445    4.1645 H   0  0  0  0  0  0  0  0  0  0  0  0
    0.0468   -1.5564    2.1345 H   0  0  0  0  0  0  0  0  0  0  0  0
   -1.5949   -1.0321    1.7152 H   0  0  0  0  0  0  0  0  0  0  0  0
   -1.2451   -0.9794    3.2786 H   0  0  0  0  0  0  0  0  0  0  0  0
    0.6667    2.2263   -3.2377 H   0  0  0  0  0  0  0  0  0  0  0  0
    1.4169    0.5481   -2.9902 H   0  0  0  0  0  0  0  0  0  0  0  0
    0.0859    0.7807   -4.1471 H   0  0  0  0  0  0  0  0  0  0  0  0
   -2.0455    2.3042   -2.2689 H   0  0  0  0  0  0  0  0  0  0  0  0
   -2.0273    1.0766   -3.6596 H   0  0  0  0  0  0  0  0  0  0  0  0
   -2.5942    0.5416   -2.2294 H   0  0  0  0  0  0  0  0  0  0  0  0
    3.5073    2.6738    1.4951 H   0  0  0  0  0  0  0  0  0  0  0  0
   -2.7113    0.5511    0.1723 C   0  0  0  0  0  0  0  0  0  0  0  0
   -1.4263    0.0603   -0.2839 N   0  0  0  0  0  4  0  0  0  0  0  0
   -0.5415   -1.1181   -0.5071 C   0  0  0  0  0  0  0  0  0  0  0  0
   -0.8164   -2.4923   -0.3052 N   0  0  0  0  0  0  0  0  0  0  0  0
   -2.1862   -2.8974   -0.1488 C   0  0  0  0  0  0  0  0  0  0  0  0
    0.2406   -3.4684   -0.0930 C   0  0  0  0  0  0  0  0  0  0  0  0
    0.7006   -0.3645   -0.3456 O   0  0  0  0  0  0  0  0  0  0  0  0
   -3.5620   -0.1096   -0.0045 H   0  0  0  0  0  0  0  0  0  0  0  0
   -2.8942    1.5251   -0.3119 H   0  0  0  0  0  0  0  0  0  0  0  0
   -2.5862    0.9626    1.1964 H   0  0  0  0  0  0  0  0  0  0  0  0
   -2.8574   -2.0385   -0.1873 H   0  0  0  0  0  0  0  0  0  0  0  0
   -2.3426   -3.3568    0.8510 H   0  0  0  0  0  0  0  0  0  0  0  0
   -2.4667   -3.5565   -0.9799 H   0  0  0  0  0  0  0  0  0  0  0  0
    1.2541   -3.0072   -0.0764 H   0  0  0  0  0  0  0  0  0  0  0  0
    0.1904   -4.2260   -0.8962 H   0  0  0  0  0  0  0  0  0  0  0  0
    0.1001   -3.9804    0.8910 H   0  0  0  0  0  0  0  0  0  0  0  0
  1  8  1  0  0  0  0
  1  5  1  0  0  0  0
  1  2  1  0  0  0  0
  1 35  1  0  0  0  0
  1 30  1  0  0  0  0
  2  3  1  0  0  0  0
  2  4  1  0  0  0  0
  3 19  1  0  0  0  0
  3 21  1  0  0  0  0
  3 20  1  0  0  0  0
  4 16  1  0  0  0  0
  4 17  1  0  0  0  0
  4 18  1  0  0  0  0
  5  7  1  0  0  0  0
  5  6  1  0  0  0  0
  6 22  1  0  0  0  0
  6 23  1  0  0  0  0
  6 24  1  0  0  0  0
  7 25  1  0  0  0  0
  7 26  1  0  0  0  0
  7 27  1  0  0  0  0
  8  9  1  0  0  0  0
  8 10  1  0  0  0  0
  9 14  1  0  0  0  0
  9 11  1  0  0  0  0
  9 12  1  0  0  0  0
 10 13  1  0  0  0  0
 10 15  1  0  0  0  0
 10 28  1  0  0  0  0
 29 30  1  0  0  0  0
 29 36  1  0  0  0  0
 29 37  1  0  0  0  0
 29 38  1  0  0  0  0
 30 31  2  0  0  0  0
 31 32  1  0  0  0  0
 31 35  1  0  0  0  0
 32 33  1  0  0  0  0
 32 34  1  0  0  0  0
 33 39  1  0  0  0  0
 33 40  1  0  0  0  0
 33 41  1  0  0  0  0
 34 42  1  0  0  0  0
 34 43  1  0  0  0  0
 34 44  1  0  0  0  0
M  END
>  <fileName>
/Users/dawn_mao/Desktop/PhD_research/chpt4_Ti_ureate/TM_catalyst_framework/src/TM_catalyst_framework/metal_center_template/u1_d2_ON1.sdf

>  <name>
XYZ file generated by Avogadro.

>  <totalCharge>
0

>  <totalSpinMultiplicity>
1

$$$$
