XYZ file generated by Avogadro.
 OpenBabel11062516433D

 44 44  0  0  0  0  0  0  0  0999 V2000
    0.6892    0.7937   -0.0536 Ti  0  0  0  0  0  0  0  0  0  0  0  0
    0.4716    2.3709    1.2985 N   0  0  0  0  0  0  0  0  0  0  0  0
    1.6714    2.8148    2.0077 C   0  0  0  0  0  0  0  0  0  0  0  0
   -0.8089    2.7211    1.9067 C   0  0  0  0  0  0  0  0  0  0  0  0
    0.0565    2.4290   -1.2272 N   0  0  0  0  0  0  0  0  0  0  0  0
   -0.4790    2.0236   -2.5329 C   0  0  0  0  0  0  0  0  0  0  0  0
    1.0352    3.5147   -1.3843 C   0  0  0  0  0  0  0  0  0  0  0  0
    1.3248   -0.4155   -1.7118 N   0  0  0  0  0  0  0  0  0  0  0  0
    2.5281    0.0757   -2.3937 C   0  0  0  0  0  0  0  0  0  0  0  0
    1.0395   -1.8254   -2.0314 C   0  0  0  0  0  0  0  0  0  0  0  0
    2.5481   -0.2561   -3.4540 H   0  0  0  0  0  0  0  0  0  0  0  0
    2.5352    1.1736   -2.3958 H   0  0  0  0  0  0  0  0  0  0  0  0
    1.8794   -2.4815   -1.7235 H   0  0  0  0  0  0  0  0  0  0  0  0
    3.4523   -0.2735   -1.8966 H   0  0  0  0  0  0  0  0  0  0  0  0
    0.0867   -2.1721   -1.6026 H   0  0  0  0  0  0  0  0  0  0  0  0
   -0.8657    3.8238    2.0331 H   0  0  0  0  0  0  0  0  0  0  0  0
   -1.6356    2.3972    1.2444 H   0  0  0  0  0  0  0  0  0  0  0  0
   -0.9197    2.2538    2.9058 H   0  0  0  0  0  0  0  0  0  0  0  0
    1.7389    3.9222    1.9832 H   0  0  0  0  0  0  0  0  0  0  0  0
    2.5672    2.3981    1.4994 H   0  0  0  0  0  0  0  0  0  0  0  0
    1.6566    2.4833    3.0659 H   0  0  0  0  0  0  0  0  0  0  0  0
    0.3207    1.6294   -3.1903 H   0  0  0  0  0  0  0  0  0  0  0  0
   -1.2610    1.2492   -2.4071 H   0  0  0  0  0  0  0  0  0  0  0  0
   -0.9644    2.8891   -3.0336 H   0  0  0  0  0  0  0  0  0  0  0  0
    1.9727    3.1598   -1.8431 H   0  0  0  0  0  0  0  0  0  0  0  0
    0.6124    4.3288   -2.0127 H   0  0  0  0  0  0  0  0  0  0  0  0
    1.2709    3.9757   -0.4102 H   0  0  0  0  0  0  0  0  0  0  0  0
    0.9381   -1.9445   -3.1306 H   0  0  0  0  0  0  0  0  0  0  0  0
   -2.2748   -2.4558    0.2207 C   0  0  0  0  0  0  0  0  0  0  0  0
   -0.9923   -2.1506    0.8135 N   0  0  0  0  0  0  0  0  0  0  0  0
   -0.3742   -1.0479    0.5748 C   0  0  0  0  0  0  0  0  0  0  0  0
    1.0981   -0.5064    1.0046 N   0  0  0  0  0  4  0  0  0  0  0  0
    1.0477   -0.2445    2.4394 C   0  0  0  0  0  0  0  0  0  0  0  0
    2.2245   -1.4153    0.7683 C   0  0  0  0  0  0  0  0  0  0  0  0
   -0.7015    0.1379   -0.3348 O   0  0  0  0  0  0  0  0  0  0  0  0
   -2.1841   -3.3810   -0.3865 H   0  0  0  0  0  0  0  0  0  0  0  0
   -2.6331   -1.6366   -0.4417 H   0  0  0  0  0  0  0  0  0  0  0  0
   -3.0233   -2.6237    1.0215 H   0  0  0  0  0  0  0  0  0  0  0  0
    0.9268   -1.1978    3.0036 H   0  0  0  0  0  0  0  0  0  0  0  0
    0.1647    0.3541    2.7102 H   0  0  0  0  0  0  0  0  0  0  0  0
    1.9764    0.2487    2.7909 H   0  0  0  0  0  0  0  0  0  0  0  0
    1.8653   -2.4114    0.4450 H   0  0  0  0  0  0  0  0  0  0  0  0
    2.8392   -1.6221    1.6759 H   0  0  0  0  0  0  0  0  0  0  0  0
    2.9410   -0.9793    0.0630 H   0  0  0  0  0  0  0  0  0  0  0  0
  1  8  1  0  0  0  0
  1  5  1  0  0  0  0
  1  2  1  0  0  0  0
  1 35  1  0  0  0  0
  1 32  1  0  0  0  0
  2  3  1  0  0  0  0
  2  4  1  0  0  0  0
  3 19  1  0  0  0  0
  3 21  1  0  0  0  0
  3 20  1  0  0  0  0
  4 16  1  0  0  0  0
  4 17  1  0  0  0  0
  4 18  1  0  0  0  0
  5  7  1  0  0  0  0
  5  6  1  0  0  0  0
  6 22  1  0  0  0  0
  6 23  1  0  0  0  0
  6 24  1  0  0  0  0
  7 25  1  0  0  0  0
  7 26  1  0  0  0  0
  7 27  1  0  0  0  0
  8  9  1  0  0  0  0
  8 10  1  0  0  0  0
  9 14  1  0  0  0  0
  9 11  1  0  0  0  0
  9 12  1  0  0  0  0
 10 13  1  0  0  0  0
 10 15  1  0  0  0  0
 10 28  1  0  0  0  0
 29 30  1  0  0  0  0
 29 36  1  0  0  0  0
 29 37  1  0  0  0  0
 29 38  1  0  0  0  0
 30 31  2  0  0  0  0
 31 32  1  0  0  0  0
 31 35  1  0  0  0  0
 32 33  1  0  0  0  0
 32 34  1  0  0  0  0
 33 39  1  0  0  0  0
 33 40  1  0  0  0  0
 33 41  1  0  0  0  0
 34 42  1  0  0  0  0
 34 43  1  0  0  0  0
 34 44  1  0  0  0  0
M  END
>  <fileName>
/Users/dawn_mao/Desktop/PhD_research/chpt4_Ti_ureate/TM_catalyst_framework/src/TM_catalyst_framework/metal_center_template/u1_d2_ON1.sdf

>  <name>
XYZ file generated by Avogadro.

>  <totalCharge>
0

>  <totalSpinMultiplicity>
1

$$$$
