
 OpenBabel11202509423D

 51 52  0  0  0  0  0  0  0  0999 V2000
    0.4332    2.6234    1.0107 Ti  0  0  0  0  0  0  0  0  0  0  0  0
   -3.9558    1.0690    0.2977 C   0  0  0  0  0  0  0  0  0  0  0  0
   -2.9327    1.7316   -0.4771 N   0  0  0  0  0  0  0  0  0  0  0  0
   -1.7969    2.1009    0.0077 C   0  0  0  0  0  0  0  0  0  0  0  0
   -0.7158    2.7037   -0.7259 N   0  0  0  0  0  4  0  0  0  0  0  0
   -0.2471    1.9027   -1.8606 C   0  0  0  0  0  0  0  0  0  0  0  0
   -1.0046    4.0203   -1.2935 C   0  0  0  0  0  0  0  0  0  0  0  0
   -1.3427    1.9294    1.2893 O   0  0  0  0  0  0  0  0  0  0  0  0
   -4.8875    1.6693    0.2616 H   0  0  0  0  0  0  0  0  0  0  0  0
   -4.1559    0.0720   -0.1481 H   0  0  0  0  0  0  0  0  0  0  0  0
   -3.6545    0.9296    1.3579 H   0  0  0  0  0  0  0  0  0  0  0  0
   -0.0945    0.8423   -1.5917 H   0  0  0  0  0  0  0  0  0  0  0  0
    0.7013    2.3137   -2.2703 H   0  0  0  0  0  0  0  0  0  0  0  0
   -1.0038    1.8746   -2.6777 H   0  0  0  0  0  0  0  0  0  0  0  0
   -1.7433    3.9507   -2.1241 H   0  0  0  0  0  0  0  0  0  0  0  0
   -0.0753    4.4938   -1.6803 H   0  0  0  0  0  0  0  0  0  0  0  0
   -1.4755    4.6955   -0.5708 H   0  0  0  0  0  0  0  0  0  0  0  0
    1.4095    2.1650    4.0352 C   0  0  0  0  0  0  0  0  0  0  0  0
    1.5995    2.5707    2.6648 N   0  0  0  0  0  4  0  0  0  0  0  0
    2.6107    3.1007    2.0002 C   0  0  0  0  0  0  0  0  0  0  0  0
    3.9251    3.4164    2.4678 N   0  0  0  0  0  0  0  0  0  0  0  0
    4.7956    4.1635    1.5782 C   0  0  0  0  0  0  0  0  0  0  0  0
    4.4049    2.9825    3.7672 C   0  0  0  0  0  0  0  0  0  0  0  0
    2.1583    3.3014    0.7258 O   0  0  0  0  0  0  0  0  0  0  0  0
    2.1227    1.3609    4.3055 H   0  0  0  0  0  0  0  0  0  0  0  0
    1.5401    3.0374    4.7080 H   0  0  0  0  0  0  0  0  0  0  0  0
    0.3761    1.7824    4.1593 H   0  0  0  0  0  0  0  0  0  0  0  0
    4.3357    5.1505    1.3551 H   0  0  0  0  0  0  0  0  0  0  0  0
    4.9353    3.6060    0.6280 H   0  0  0  0  0  0  0  0  0  0  0  0
    5.7951    4.3459    2.0254 H   0  0  0  0  0  0  0  0  0  0  0  0
    3.7928    3.4275    4.5746 H   0  0  0  0  0  0  0  0  0  0  0  0
    5.4572    3.2906    3.9412 H   0  0  0  0  0  0  0  0  0  0  0  0
    4.3725    1.8739    3.8227 H   0  0  0  0  0  0  0  0  0  0  0  0
   -0.2290    4.4958    1.6885 N   0  0  0  0  0  0  0  0  0  0  0  0
   -1.6672    4.7082    1.8659 C   0  0  0  0  0  0  0  0  0  0  0  0
    0.5443    5.6677    1.2617 C   0  0  0  0  0  0  0  0  0  0  0  0
   -1.8484    5.5303    2.5901 H   0  0  0  0  0  0  0  0  0  0  0  0
   -1.8484    5.5303    2.5901 H   0  0  0  0  0  0  0  0  0  0  0  0
   -1.8484    5.5303    2.5901 H   0  0  0  0  0  0  0  0  0  0  0  0
    0.2761    5.9775    0.2336 H   0  0  0  0  0  0  0  0  0  0  0  0
    0.2761    5.9775    0.2336 H   0  0  0  0  0  0  0  0  0  0  0  0
    0.3957    6.5162    1.9627 H   0  0  0  0  0  0  0  0  0  0  0  0
    1.0046    0.6791    0.4767 N   0  0  0  0  0  0  0  0  0  0  0  0
    0.9380   -0.2296    1.6244 C   0  0  0  0  0  0  0  0  0  0  0  0
    2.3144    0.5856   -0.1747 C   0  0  0  0  0  0  0  0  0  0  0  0
   -0.0242   -0.0921    2.1573 H   0  0  0  0  0  0  0  0  0  0  0  0
    1.7690   -0.0402    2.3348 H   0  0  0  0  0  0  0  0  0  0  0  0
    0.9974   -1.2841    1.2816 H   0  0  0  0  0  0  0  0  0  0  0  0
    2.4511   -0.4339   -0.5956 H   0  0  0  0  0  0  0  0  0  0  0  0
    3.1362    0.7959    0.5415 H   0  0  0  0  0  0  0  0  0  0  0  0
    2.3766    1.3103   -1.0081 H   0  0  0  0  0  0  0  0  0  0  0  0
  1  8  1  0  0  0  0
  1  5  1  0  0  0  0
  1 24  1  0  0  0  0
  1 19  1  0  0  0  0
  1 34  1  0  0  0  0
  1 43  1  0  0  0  0
  2  3  1  0  0  0  0
  2  9  1  0  0  0  0
  2 10  1  0  0  0  0
  2 11  1  0  0  0  0
  3  4  2  0  0  0  0
  4  5  1  0  0  0  0
  4  8  1  0  0  0  0
  5  6  1  0  0  0  0
  5  7  1  0  0  0  0
  6 12  1  0  0  0  0
  6 13  1  0  0  0  0
  6 14  1  0  0  0  0
  7 15  1  0  0  0  0
  7 16  1  0  0  0  0
  7 17  1  0  0  0  0
 18 19  1  0  0  0  0
 18 25  1  0  0  0  0
 18 26  1  0  0  0  0
 18 27  1  0  0  0  0
 19 20  2  0  0  0  0
 20 21  1  0  0  0  0
 20 24  1  0  0  0  0
 21 22  1  0  0  0  0
 21 23  1  0  0  0  0
 22 28  1  0  0  0  0
 22 29  1  0  0  0  0
 22 30  1  0  0  0  0
 23 31  1  0  0  0  0
 23 32  1  0  0  0  0
 23 33  1  0  0  0  0
 34 35  1  0  0  0  0
 34 36  1  0  0  0  0
 35 37  1  0  0  0  0
 35 38  1  0  0  0  0
 35 39  1  0  0  0  0
 36 40  1  0  0  0  0
 36 41  1  0  0  0  0
 36 42  1  0  0  0  0
 43 44  1  0  0  0  0
 43 45  1  0  0  0  0
 44 46  1  0  0  0  0
 44 47  1  0  0  0  0
 44 48  1  0  0  0  0
 45 49  1  0  0  0  0
 45 50  1  0  0  0  0
 45 51  1  0  0  0  0
M  END
$$$$
