XYZ file generated by Avogadro.
 OpenBabel11062516443D

 51 51  0  0  0  0  0  0  0  0999 V2000
    0.1560    0.4626   -0.5124 Ti  0  0  0  0  0  0  0  0  0  0  0  0
    0.3736    2.1187   -1.7690 N   0  0  0  0  0  0  0  0  0  0  0  0
    1.6843    2.7684   -1.6430 C   0  0  0  0  0  0  0  0  0  0  0  0
    0.1683    1.6981   -3.1590 C   0  0  0  0  0  0  0  0  0  0  0  0
    2.1636    0.1320    0.1022 N   0  0  0  0  0  0  0  0  0  0  0  0
    2.6827   -0.2254    1.4298 C   0  0  0  0  0  0  0  0  0  0  0  0
    3.0170   -0.3604   -0.9820 C   0  0  0  0  0  0  0  0  0  0  0  0
    3.9626    0.2213   -1.0073 H   0  0  0  0  0  0  0  0  0  0  0  0
    3.2715   -1.4321   -0.8504 H   0  0  0  0  0  0  0  0  0  0  0  0
    1.7072    3.6952   -2.2555 H   0  0  0  0  0  0  0  0  0  0  0  0
    2.5475   -1.3065    1.6309 H   0  0  0  0  0  0  0  0  0  0  0  0
    2.4934   -0.2394   -1.9505 H   0  0  0  0  0  0  0  0  0  0  0  0
    3.7712   -0.0067    1.4826 H   0  0  0  0  0  0  0  0  0  0  0  0
    2.2136    0.3821    2.2235 H   0  0  0  0  0  0  0  0  0  0  0  0
    0.9030    0.9144   -3.4408 H   0  0  0  0  0  0  0  0  0  0  0  0
   -0.8516    1.2823   -3.2821 H   0  0  0  0  0  0  0  0  0  0  0  0
    0.2605    2.5654   -3.8482 H   0  0  0  0  0  0  0  0  0  0  0  0
    2.5014    2.1031   -1.9826 H   0  0  0  0  0  0  0  0  0  0  0  0
    1.8774    3.0653   -0.5964 H   0  0  0  0  0  0  0  0  0  0  0  0
   -2.3122    2.8429    0.3281 C   0  0  0  0  0  0  0  0  0  0  0  0
   -1.2950    3.4344    1.1464 N   0  0  0  0  0  0  0  0  0  0  0  0
   -0.1004    3.0030    1.3998 C   0  0  0  0  0  0  0  0  0  0  0  0
    0.7284    3.7896    2.2773 N   0  0  0  0  0  0  0  0  0  0  0  0
    2.1234    3.4539    2.5025 C   0  0  0  0  0  0  0  0  0  0  0  0
    0.2189    4.9681    2.9650 C   0  0  0  0  0  0  0  0  0  0  0  0
    0.4154    1.8305    0.9065 O   0  0  0  0  0  0  0  0  0  0  0  0
   -3.0038   -2.6846    0.1936 C   0  0  0  0  0  0  0  0  0  0  0  0
   -2.8124   -1.3686   -0.3664 N   0  0  0  0  0  0  0  0  0  0  0  0
   -1.6900   -0.7335   -0.3774 C   0  0  0  0  0  0  0  0  0  0  0  0
   -0.1970   -1.0577    0.1734 N   0  0  0  0  0  4  0  0  0  0  0  0
    0.3817   -2.1987   -0.5199 C   0  0  0  0  0  0  0  0  0  0  0  0
   -0.1703   -1.2263    1.6272 C   0  0  0  0  0  0  0  0  0  0  0  0
   -1.3345    0.6209   -0.9459 O   0  0  0  0  0  0  0  0  0  0  0  0
   -3.2236    3.4715    0.3936 H   0  0  0  0  0  0  0  0  0  0  0  0
   -2.5740    1.8371    0.7152 H   0  0  0  0  0  0  0  0  0  0  0  0
   -1.9967    2.8540   -0.7327 H   0  0  0  0  0  0  0  0  0  0  0  0
    2.4534    2.5872    1.9041 H   0  0  0  0  0  0  0  0  0  0  0  0
    2.2888    3.2309    3.5777 H   0  0  0  0  0  0  0  0  0  0  0  0
    2.7644    4.3115    2.2073 H   0  0  0  0  0  0  0  0  0  0  0  0
   -0.8503    5.1673    2.7503 H   0  0  0  0  0  0  0  0  0  0  0  0
    0.8009    5.8623    2.6565 H   0  0  0  0  0  0  0  0  0  0  0  0
    0.3218    4.8322    4.0625 H   0  0  0  0  0  0  0  0  0  0  0  0
   -2.3971   -3.4321   -0.3543 H   0  0  0  0  0  0  0  0  0  0  0  0
   -4.0702   -2.9682    0.0810 H   0  0  0  0  0  0  0  0  0  0  0  0
   -2.7581   -2.7000    1.2732 H   0  0  0  0  0  0  0  0  0  0  0  0
    1.4143   -2.3957   -0.1842 H   0  0  0  0  0  0  0  0  0  0  0  0
    0.3805   -2.0174   -1.6155 H   0  0  0  0  0  0  0  0  0  0  0  0
   -0.1919   -3.1218   -0.3072 H   0  0  0  0  0  0  0  0  0  0  0  0
    0.3901   -2.1286    1.9585 H   0  0  0  0  0  0  0  0  0  0  0  0
   -1.1946   -1.3176    2.0367 H   0  0  0  0  0  0  0  0  0  0  0  0
    0.2173   -0.3279    2.1222 H   0  0  0  0  0  0  0  0  0  0  0  0
  1  5  1  0  0  0  0
  1  2  1  0  0  0  0
  1 26  1  0  0  0  0
  1 33  1  0  0  0  0
  1 30  1  0  0  0  0
  2  3  1  0  0  0  0
  2  4  1  0  0  0  0
  3 18  1  0  0  0  0
  3 10  1  0  0  0  0
  3 19  1  0  0  0  0
  4 15  1  0  0  0  0
  4 16  1  0  0  0  0
  4 17  1  0  0  0  0
  5  7  1  0  0  0  0
  5  6  1  0  0  0  0
  6 13  1  0  0  0  0
  6 14  1  0  0  0  0
  6 11  1  0  0  0  0
  7  8  1  0  0  0  0
  7  9  1  0  0  0  0
  7 12  1  0  0  0  0
 20 21  1  0  0  0  0
 20 34  1  0  0  0  0
 20 35  1  0  0  0  0
 20 36  1  0  0  0  0
 21 22  2  0  0  0  0
 22 23  1  0  0  0  0
 22 26  1  0  0  0  0
 23 24  1  0  0  0  0
 23 25  1  0  0  0  0
 24 37  1  0  0  0  0
 24 38  1  0  0  0  0
 24 39  1  0  0  0  0
 25 40  1  0  0  0  0
 25 41  1  0  0  0  0
 25 42  1  0  0  0  0
 27 28  1  0  0  0  0
 27 43  1  0  0  0  0
 27 44  1  0  0  0  0
 27 45  1  0  0  0  0
 28 29  2  0  0  0  0
 29 30  1  0  0  0  0
 29 33  1  0  0  0  0
 30 31  1  0  0  0  0
 30 32  1  0  0  0  0
 31 46  1  0  0  0  0
 31 47  1  0  0  0  0
 31 48  1  0  0  0  0
 32 49  1  0  0  0  0
 32 50  1  0  0  0  0
 32 51  1  0  0  0  0
M  END
>  <fileName>
/Users/dawn_mao/Desktop/PhD_research/chpt4_Ti_ureate/TM_catalyst_framework/src/TM_catalyst_framework/metal_center_template/u2_d1_d2_ON1.sdf

>  <name>
XYZ file generated by Avogadro.

>  <totalCharge>
0

>  <totalSpinMultiplicity>
1

$$$$
