XYZ file generated by Avogadro.
 OpenBabel11102520493D

 51 51  0  0  0  0  0  0  0  0999 V2000
   -0.6365    2.4517    0.9865 Ti  0  0  0  0  0  0  0  0  0  0  0  0
   -0.8836    4.4312    1.6909 N   0  0  0  0  0  0  0  0  0  0  0  0
   -2.1849    4.9101    2.1650 C   0  0  0  0  0  0  0  0  0  0  0  0
    0.2477    4.9456    2.4651 C   0  0  0  0  0  0  0  0  0  0  0  0
   -0.9354    2.7269   -1.0576 N   0  0  0  0  0  0  0  0  0  0  0  0
    0.3662    3.1085   -1.6180 C   0  0  0  0  0  0  0  0  0  0  0  0
   -1.8845    3.8120   -1.3388 C   0  0  0  0  0  0  0  0  0  0  0  0
   -2.8874    3.5686   -0.9546 H   0  0  0  0  0  0  0  0  0  0  0  0
   -1.5510    4.7659   -0.8786 H   0  0  0  0  0  0  0  0  0  0  0  0
   -2.1793    6.0206    2.2232 H   0  0  0  0  0  0  0  0  0  0  0  0
    0.3026    3.2164   -2.7218 H   0  0  0  0  0  0  0  0  0  0  0  0
   -1.9874    3.9537   -2.4371 H   0  0  0  0  0  0  0  0  0  0  0  0
    0.7252    4.0582   -1.1632 H   0  0  0  0  0  0  0  0  0  0  0  0
    1.1211    2.3338   -1.4038 H   0  0  0  0  0  0  0  0  0  0  0  0
    1.1930    4.6085    1.9903 H   0  0  0  0  0  0  0  0  0  0  0  0
    0.2410    6.0568    2.4658 H   0  0  0  0  0  0  0  0  0  0  0  0
    0.2102    4.5705    3.5092 H   0  0  0  0  0  0  0  0  0  0  0  0
   -2.9744    4.6272    1.4401 H   0  0  0  0  0  0  0  0  0  0  0  0
   -2.4195    4.4970    3.1666 H   0  0  0  0  0  0  0  0  0  0  0  0
   -3.3906    1.5086    0.5930 C   0  0  0  0  0  0  0  0  0  0  0  0
   -2.2626    2.1316    1.2445 N   0  0  0  0  0  4  0  0  0  0  0  0
   -1.8212    1.9261    2.6437 C   0  0  0  0  0  0  0  0  0  0  0  0
   -2.4180    1.2129    3.7208 N   0  0  0  0  0  0  0  0  0  0  0  0
   -1.5329    0.4961    4.6157 C   0  0  0  0  0  0  0  0  0  0  0  0
   -3.8512    1.1216    3.9001 C   0  0  0  0  0  0  0  0  0  0  0  0
   -0.3764    2.2733    2.3849 O   0  0  0  0  0  0  0  0  0  0  0  0
   -4.1827    2.2647    0.4130 H   0  0  0  0  0  0  0  0  0  0  0  0
   -3.0654    1.0687   -0.3712 H   0  0  0  0  0  0  0  0  0  0  0  0
   -3.8066    0.6925    1.2147 H   0  0  0  0  0  0  0  0  0  0  0  0
   -0.9555   -0.2554    4.0309 H   0  0  0  0  0  0  0  0  0  0  0  0
   -2.1009   -0.0507    5.3982 H   0  0  0  0  0  0  0  0  0  0  0  0
   -0.8221    1.1964    5.1003 H   0  0  0  0  0  0  0  0  0  0  0  0
   -4.1755    0.0641    3.7944 H   0  0  0  0  0  0  0  0  0  0  0  0
   -4.3954    1.7528    3.1697 H   0  0  0  0  0  0  0  0  0  0  0  0
   -4.1163    1.4783    4.9181 H   0  0  0  0  0  0  0  0  0  0  0  0
    0.6077   -1.0966   -1.7177 C   0  0  0  0  0  0  0  0  0  0  0  0
    1.5592   -0.5335   -0.7814 N   0  0  0  0  0  0  0  0  0  0  0  0
    1.2570    0.2919    0.1656 C   0  0  0  0  0  0  0  0  0  0  0  0
    2.2973    0.7751    1.0232 N   0  0  0  0  0  0  0  0  0  0  0  0
    3.6283    0.9876    0.4895 C   0  0  0  0  0  0  0  0  0  0  0  0
    2.0814    0.9685    2.4429 C   0  0  0  0  0  0  0  0  0  0  0  0
   -0.0283    0.7167    0.2932 O   0  0  0  0  0  0  0  0  0  0  0  0
   -0.4323   -0.7491   -1.5388 H   0  0  0  0  0  0  0  0  0  0  0  0
    0.9014   -0.8165   -2.7492 H   0  0  0  0  0  0  0  0  0  0  0  0
    0.6226   -2.2025   -1.6264 H   0  0  0  0  0  0  0  0  0  0  0  0
    4.0290    0.0422    0.0698 H   0  0  0  0  0  0  0  0  0  0  0  0
    4.3247    1.3462    1.2787 H   0  0  0  0  0  0  0  0  0  0  0  0
    3.5844    1.7596   -0.3079 H   0  0  0  0  0  0  0  0  0  0  0  0
    1.0979    0.5704    2.7572 H   0  0  0  0  0  0  0  0  0  0  0  0
    2.2009    2.0394    2.7120 H   0  0  0  0  0  0  0  0  0  0  0  0
    2.8233    0.3708    3.0137 H   0  0  0  0  0  0  0  0  0  0  0  0
  1  5  1  0  0  0  0
  1  2  1  0  0  0  0
  1 26  1  0  0  0  0
  1 21  1  0  0  0  0
  1 42  1  0  0  0  0
  2  3  1  0  0  0  0
  2  4  1  0  0  0  0
  3 18  1  0  0  0  0
  3 10  1  0  0  0  0
  3 19  1  0  0  0  0
  4 15  1  0  0  0  0
  4 16  1  0  0  0  0
  4 17  1  0  0  0  0
  5  7  1  0  0  0  0
  5  6  1  0  0  0  0
  6 13  1  0  0  0  0
  6 14  1  0  0  0  0
  6 11  1  0  0  0  0
  7  8  1  0  0  0  0
  7  9  1  0  0  0  0
  7 12  1  0  0  0  0
 20 21  1  0  0  0  0
 20 27  1  0  0  0  0
 20 28  1  0  0  0  0
 20 29  1  0  0  0  0
 21 22  2  0  0  0  0
 22 23  1  0  0  0  0
 22 26  1  0  0  0  0
 23 24  1  0  0  0  0
 23 25  1  0  0  0  0
 24 30  1  0  0  0  0
 24 31  1  0  0  0  0
 24 32  1  0  0  0  0
 25 33  1  0  0  0  0
 25 34  1  0  0  0  0
 25 35  1  0  0  0  0
 36 37  1  0  0  0  0
 36 43  1  0  0  0  0
 36 44  1  0  0  0  0
 36 45  1  0  0  0  0
 37 38  2  0  0  0  0
 38 39  1  0  0  0  0
 38 42  1  0  0  0  0
 39 40  1  0  0  0  0
 39 41  1  0  0  0  0
 40 46  1  0  0  0  0
 40 47  1  0  0  0  0
 40 48  1  0  0  0  0
 41 49  1  0  0  0  0
 41 50  1  0  0  0  0
 41 51  1  0  0  0  0
M  END
$$$$
