XYZ file generated by Avogadro.
 OpenBabel11102521553D

 51 51  0  0  0  0  0  0  0  0999 V2000
   -0.3474    2.5167    1.3606 Ti  0  0  0  0  0  0  0  0  0  0  0  0
   -0.2584    4.5598    1.9189 N   0  0  0  0  0  0  0  0  0  0  0  0
   -1.5136    5.3231    1.8830 C   0  0  0  0  0  0  0  0  0  0  0  0
    0.8532    5.2887    1.3073 C   0  0  0  0  0  0  0  0  0  0  0  0
   -0.9644    2.6093   -0.6452 N   0  0  0  0  0  0  0  0  0  0  0  0
   -0.4599    3.7917   -1.3465 C   0  0  0  0  0  0  0  0  0  0  0  0
   -2.4069    2.4624   -0.8511 C   0  0  0  0  0  0  0  0  0  0  0  0
   -2.7507    1.5157   -0.3878 H   0  0  0  0  0  0  0  0  0  0  0  0
   -2.9564    3.3162   -0.4003 H   0  0  0  0  0  0  0  0  0  0  0  0
   -1.3377    6.3856    2.1582 H   0  0  0  0  0  0  0  0  0  0  0  0
   -0.5965    3.6734   -2.4421 H   0  0  0  0  0  0  0  0  0  0  0  0
   -2.6365    2.4136   -1.9379 H   0  0  0  0  0  0  0  0  0  0  0  0
   -0.9905    4.7081   -1.0268 H   0  0  0  0  0  0  0  0  0  0  0  0
    0.6245    3.9069   -1.1588 H   0  0  0  0  0  0  0  0  0  0  0  0
    1.7347    4.6210    1.2289 H   0  0  0  0  0  0  0  0  0  0  0  0
    0.5881    5.6829    0.3081 H   0  0  0  0  0  0  0  0  0  0  0  0
    1.1253    6.1522    1.9513 H   0  0  0  0  0  0  0  0  0  0  0  0
   -1.9823    5.2725    0.8833 H   0  0  0  0  0  0  0  0  0  0  0  0
   -2.2238    4.9164    2.6306 H   0  0  0  0  0  0  0  0  0  0  0  0
   -3.5626    2.2936    4.3406 C   0  0  0  0  0  0  0  0  0  0  0  0
   -2.1221    2.2610    4.3750 N   0  0  0  0  0  0  0  0  0  0  0  0
   -1.4327    2.3821    3.2991 C   0  0  0  0  0  0  0  0  0  0  0  0
    0.1677    2.3271    3.0118 N   0  0  0  0  0  4  0  0  0  0  0  0
    0.7522    1.0118    3.2715 C   0  0  0  0  0  0  0  0  0  0  0  0
    0.8606    3.2782    3.9094 C   0  0  0  0  0  0  0  0  0  0  0  0
   -1.8389    2.5697    1.8248 O   0  0  0  0  0  0  0  0  0  0  0  0
   -3.9160    3.2670    3.9389 H   0  0  0  0  0  0  0  0  0  0  0  0
   -3.9458    1.4676    3.7019 H   0  0  0  0  0  0  0  0  0  0  0  0
   -3.9569    2.1593    5.3685 H   0  0  0  0  0  0  0  0  0  0  0  0
    1.1742    0.8914    4.2945 H   0  0  0  0  0  0  0  0  0  0  0  0
    1.6008    0.8422    2.5813 H   0  0  0  0  0  0  0  0  0  0  0  0
   -0.0144    0.2185    3.1960 H   0  0  0  0  0  0  0  0  0  0  0  0
    0.3587    4.2548    4.0426 H   0  0  0  0  0  0  0  0  0  0  0  0
    1.9134    3.4234    3.5866 H   0  0  0  0  0  0  0  0  0  0  0  0
    0.8554    2.9120    4.9613 H   0  0  0  0  0  0  0  0  0  0  0  0
    1.9486    1.4335   -0.8923 C   0  0  0  0  0  0  0  0  0  0  0  0
    1.7921    0.1435   -0.2809 N   0  0  0  0  0  0  0  0  0  0  0  0
    0.7835   -0.2278    0.4354 C   0  0  0  0  0  0  0  0  0  0  0  0
    0.7209   -1.5805    0.9249 N   0  0  0  0  0  0  0  0  0  0  0  0
    1.7985   -2.5312    0.7018 C   0  0  0  0  0  0  0  0  0  0  0  0
   -0.4191   -2.0454    1.7006 C   0  0  0  0  0  0  0  0  0  0  0  0
   -0.2307    0.6218    0.7639 O   0  0  0  0  0  0  0  0  0  0  0  0
    2.9184    1.4584   -1.4307 H   0  0  0  0  0  0  0  0  0  0  0  0
    1.9356    2.2303   -0.1224 H   0  0  0  0  0  0  0  0  0  0  0  0
    1.1523    1.5753   -1.6510 H   0  0  0  0  0  0  0  0  0  0  0  0
    2.2097   -2.8610    1.6802 H   0  0  0  0  0  0  0  0  0  0  0  0
    2.6325   -2.1035    0.1101 H   0  0  0  0  0  0  0  0  0  0  0  0
    1.4086   -3.4181    0.1595 H   0  0  0  0  0  0  0  0  0  0  0  0
   -1.2050   -1.2713    1.8158 H   0  0  0  0  0  0  0  0  0  0  0  0
   -0.0821   -2.3463    2.7160 H   0  0  0  0  0  0  0  0  0  0  0  0
   -0.8840   -2.9202    1.2007 H   0  0  0  0  0  0  0  0  0  0  0  0
  1  5  1  0  0  0  0
  1  2  1  0  0  0  0
  1 26  1  0  0  0  0
  1 23  1  0  0  0  0
  1 42  1  0  0  0  0
  2  3  1  0  0  0  0
  2  4  1  0  0  0  0
  3 18  1  0  0  0  0
  3 10  1  0  0  0  0
  3 19  1  0  0  0  0
  4 15  1  0  0  0  0
  4 16  1  0  0  0  0
  4 17  1  0  0  0  0
  5  7  1  0  0  0  0
  5  6  1  0  0  0  0
  6 13  1  0  0  0  0
  6 14  1  0  0  0  0
  6 11  1  0  0  0  0
  7  8  1  0  0  0  0
  7  9  1  0  0  0  0
  7 12  1  0  0  0  0
 20 21  1  0  0  0  0
 20 27  1  0  0  0  0
 20 28  1  0  0  0  0
 20 29  1  0  0  0  0
 21 22  2  0  0  0  0
 22 23  1  0  0  0  0
 22 26  1  0  0  0  0
 23 24  1  0  0  0  0
 23 25  1  0  0  0  0
 24 30  1  0  0  0  0
 24 31  1  0  0  0  0
 24 32  1  0  0  0  0
 25 33  1  0  0  0  0
 25 34  1  0  0  0  0
 25 35  1  0  0  0  0
 36 37  1  0  0  0  0
 36 43  1  0  0  0  0
 36 44  1  0  0  0  0
 36 45  1  0  0  0  0
 37 38  2  0  0  0  0
 38 39  1  0  0  0  0
 38 42  1  0  0  0  0
 39 40  1  0  0  0  0
 39 41  1  0  0  0  0
 40 46  1  0  0  0  0
 40 47  1  0  0  0  0
 40 48  1  0  0  0  0
 41 49  1  0  0  0  0
 41 50  1  0  0  0  0
 41 51  1  0  0  0  0
M  END
$$$$
