XYZ file generated by Avogadro.
 OpenBabel11102520213D

 51 52  0  0  0  0  0  0  0  0999 V2000
   -0.6713    2.0535    0.8059 Ti  0  0  0  0  0  0  0  0  0  0  0  0
   -0.8852    4.0512    1.5227 N   0  0  0  0  0  0  0  0  0  0  0  0
   -2.2581    4.5689    1.5441 C   0  0  0  0  0  0  0  0  0  0  0  0
   -0.2300    4.3289    2.7999 C   0  0  0  0  0  0  0  0  0  0  0  0
   -0.1099    2.8194   -1.0693 N   0  0  0  0  0  0  0  0  0  0  0  0
   -0.0019    4.2754   -1.1904 C   0  0  0  0  0  0  0  0  0  0  0  0
   -0.8185    2.2310   -2.2055 C   0  0  0  0  0  0  0  0  0  0  0  0
   -1.0827    1.1783   -1.9848 H   0  0  0  0  0  0  0  0  0  0  0  0
   -1.7295    2.8045   -2.4609 H   0  0  0  0  0  0  0  0  0  0  0  0
   -2.2669    5.6483    1.8090 H   0  0  0  0  0  0  0  0  0  0  0  0
    0.4458    4.5472   -2.1707 H   0  0  0  0  0  0  0  0  0  0  0  0
   -0.1599    2.2505   -3.0991 H   0  0  0  0  0  0  0  0  0  0  0  0
   -0.9996    4.7519   -1.1061 H   0  0  0  0  0  0  0  0  0  0  0  0
    0.6701    4.6710   -0.4033 H   0  0  0  0  0  0  0  0  0  0  0  0
    0.8611    4.3503    2.6527 H   0  0  0  0  0  0  0  0  0  0  0  0
   -0.4713    5.3506    3.1675 H   0  0  0  0  0  0  0  0  0  0  0  0
   -0.5380    3.5874    3.5653 H   0  0  0  0  0  0  0  0  0  0  0  0
   -2.6979    4.5081    0.5336 H   0  0  0  0  0  0  0  0  0  0  0  0
   -2.8795    4.0195    2.2821 H   0  0  0  0  0  0  0  0  0  0  0  0
   -3.7634    2.2272   -0.2230 C   0  0  0  0  0  0  0  0  0  0  0  0
   -2.7045    1.8865    0.7004 N   0  0  0  0  0  4  0  0  0  0  0  0
   -2.7350    1.3339    1.9021 C   0  0  0  0  0  0  0  0  0  0  0  0
   -3.8596    0.8502    2.6474 N   0  0  0  0  0  0  0  0  0  0  0  0
   -5.2082    0.8351    2.1089 C   0  0  0  0  0  0  0  0  0  0  0  0
   -3.6047    0.3272    3.9775 C   0  0  0  0  0  0  0  0  0  0  0  0
   -1.4433    1.3284    2.3551 O   0  0  0  0  0  0  0  0  0  0  0  0
   -4.2877    1.3113   -0.5607 H   0  0  0  0  0  0  0  0  0  0  0  0
   -3.3555    2.7366   -1.1054 H   0  0  0  0  0  0  0  0  0  0  0  0
   -4.4788    2.9279    0.2515 H   0  0  0  0  0  0  0  0  0  0  0  0
   -5.9331    0.3968    2.8267 H   0  0  0  0  0  0  0  0  0  0  0  0
   -5.2418    0.2114    1.1929 H   0  0  0  0  0  0  0  0  0  0  0  0
   -5.5485    1.8668    1.8966 H   0  0  0  0  0  0  0  0  0  0  0  0
   -3.1665    1.1240    4.6149 H   0  0  0  0  0  0  0  0  0  0  0  0
   -2.8906   -0.5221    3.9156 H   0  0  0  0  0  0  0  0  0  0  0  0
   -4.5300   -0.0387    4.4699 H   0  0  0  0  0  0  0  0  0  0  0  0
    3.3210   -0.7201    1.0033 C   0  0  0  0  0  0  0  0  0  0  0  0
    1.9490   -0.6554    0.5593 N   0  0  0  0  0  0  0  0  0  0  0  0
    1.1158    0.3265    0.6981 C   0  0  0  0  0  0  0  0  0  0  0  0
    1.2869    1.6351    1.3206 N   0  0  0  0  0  4  0  0  0  0  0  0
    1.5272    1.4869    2.7574 C   0  0  0  0  0  0  0  0  0  0  0  0
    2.3104    2.4890    0.7277 C   0  0  0  0  0  0  0  0  0  0  0  0
   -0.1805    0.2831    0.2755 O   0  0  0  0  0  0  0  0  0  0  0  0
    3.9338    0.0658    0.5244 H   0  0  0  0  0  0  0  0  0  0  0  0
    3.7403   -1.7007    0.6988 H   0  0  0  0  0  0  0  0  0  0  0  0
    3.3843   -0.6807    2.1068 H   0  0  0  0  0  0  0  0  0  0  0  0
    2.5351    1.0829    2.9650 H   0  0  0  0  0  0  0  0  0  0  0  0
    0.7838    0.8094    3.2253 H   0  0  0  0  0  0  0  0  0  0  0  0
    1.4974    2.4444    3.2918 H   0  0  0  0  0  0  0  0  0  0  0  0
    2.2145    2.5226   -0.3747 H   0  0  0  0  0  0  0  0  0  0  0  0
    3.3310    2.1225    0.9541 H   0  0  0  0  0  0  0  0  0  0  0  0
    2.2389    3.5213    1.1181 H   0  0  0  0  0  0  0  0  0  0  0  0
  1  5  1  0  0  0  0
  1  2  1  0  0  0  0
  1 26  1  0  0  0  0
  1 21  1  0  0  0  0
  1 42  1  0  0  0  0
  1 39  1  0  0  0  0
  2  3  1  0  0  0  0
  2  4  1  0  0  0  0
  3 18  1  0  0  0  0
  3 10  1  0  0  0  0
  3 19  1  0  0  0  0
  4 15  1  0  0  0  0
  4 16  1  0  0  0  0
  4 17  1  0  0  0  0
  5  7  1  0  0  0  0
  5  6  1  0  0  0  0
  6 13  1  0  0  0  0
  6 14  1  0  0  0  0
  6 11  1  0  0  0  0
  7  8  1  0  0  0  0
  7  9  1  0  0  0  0
  7 12  1  0  0  0  0
 20 21  1  0  0  0  0
 20 27  1  0  0  0  0
 20 28  1  0  0  0  0
 20 29  1  0  0  0  0
 21 22  2  0  0  0  0
 22 23  1  0  0  0  0
 22 26  1  0  0  0  0
 23 24  1  0  0  0  0
 23 25  1  0  0  0  0
 24 30  1  0  0  0  0
 24 31  1  0  0  0  0
 24 32  1  0  0  0  0
 25 33  1  0  0  0  0
 25 34  1  0  0  0  0
 25 35  1  0  0  0  0
 36 37  1  0  0  0  0
 36 43  1  0  0  0  0
 36 44  1  0  0  0  0
 36 45  1  0  0  0  0
 37 38  2  0  0  0  0
 38 39  1  0  0  0  0
 38 42  1  0  0  0  0
 39 40  1  0  0  0  0
 39 41  1  0  0  0  0
 40 46  1  0  0  0  0
 40 47  1  0  0  0  0
 40 48  1  0  0  0  0
 41 49  1  0  0  0  0
 41 50  1  0  0  0  0
 41 51  1  0  0  0  0
M  END
>  <fileName>
/Users/dawn_mao/Desktop/PhD_research/chpt4_Ti_ureate/TM_catalyst_framework/src/TM_catalyst_framework/template/u2_d2d2_iso7.sdf

>  <name>
XYZ file generated by Avogadro.

$$$$
