
 OpenBabel11132516183D

 51 51  0  0  0  0  0  0  0  0999 V2000
   -0.9141    2.3841    0.7972 Ti  0  0  0  0  0  0  0  0  0  0  0  0
   -2.7728    3.0342    5.0308 C   0  0  0  0  0  0  0  0  0  0  0  0
   -3.1823    2.3597    3.8245 N   0  0  0  0  0  0  0  0  0  0  0  0
   -2.4792    2.4060    2.7455 C   0  0  0  0  0  0  0  0  0  0  0  0
   -2.7575    1.7279    1.5125 N   0  0  0  0  0  4  0  0  0  0  0  0
   -3.9096    2.3043    0.8267 C   0  0  0  0  0  0  0  0  0  0  0  0
   -2.9599    0.2741    1.6267 C   0  0  0  0  0  0  0  0  0  0  0  0
   -1.3015    3.0506    2.5682 O   0  0  0  0  0  0  0  0  0  0  0  0
   -3.5220    2.8445    5.8262 H   0  0  0  0  0  0  0  0  0  0  0  0
   -1.7887    2.6425    5.3685 H   0  0  0  0  0  0  0  0  0  0  0  0
   -2.6986    4.1282    4.8534 H   0  0  0  0  0  0  0  0  0  0  0  0
   -3.9771    1.9243   -0.2156 H   0  0  0  0  0  0  0  0  0  0  0  0
   -3.8505    3.4079    0.8053 H   0  0  0  0  0  0  0  0  0  0  0  0
   -4.8537    2.0630    1.3664 H   0  0  0  0  0  0  0  0  0  0  0  0
   -2.1728   -0.2900    1.1105 H   0  0  0  0  0  0  0  0  0  0  0  0
   -3.9158   -0.0820    1.1773 H   0  0  0  0  0  0  0  0  0  0  0  0
   -2.9684   -0.0575    2.6882 H   0  0  0  0  0  0  0  0  0  0  0  0
    1.7558   -1.2142    1.8380 C   0  0  0  0  0  0  0  0  0  0  0  0
    1.2211   -1.2159    0.4942 N   0  0  0  0  0  0  0  0  0  0  0  0
    0.3640   -0.3484    0.0656 C   0  0  0  0  0  0  0  0  0  0  0  0
   -0.1483   -0.4774   -1.2726 N   0  0  0  0  0  0  0  0  0  0  0  0
    0.4670   -1.3896   -2.2267 C   0  0  0  0  0  0  0  0  0  0  0  0
   -1.3456    0.2105   -1.7067 C   0  0  0  0  0  0  0  0  0  0  0  0
   -0.0607    0.6114    0.9339 O   0  0  0  0  0  0  0  0  0  0  0  0
    2.4528   -2.0687    1.9554 H   0  0  0  0  0  0  0  0  0  0  0  0
    0.9322   -1.3230    2.5767 H   0  0  0  0  0  0  0  0  0  0  0  0
    2.3109   -0.2742    2.0330 H   0  0  0  0  0  0  0  0  0  0  0  0
    1.3669   -1.8952   -1.8193 H   0  0  0  0  0  0  0  0  0  0  0  0
    0.7839   -0.8257   -3.1292 H   0  0  0  0  0  0  0  0  0  0  0  0
   -0.2616   -2.1727   -2.5244 H   0  0  0  0  0  0  0  0  0  0  0  0
   -2.1234   -0.5356   -1.9736 H   0  0  0  0  0  0  0  0  0  0  0  0
   -1.7599    0.8499   -0.9135 H   0  0  0  0  0  0  0  0  0  0  0  0
   -1.1332    0.8155   -2.6107 H   0  0  0  0  0  0  0  0  0  0  0  0
    0.9226    3.3771    0.6512 N   0  0  0  0  0  0  0  0  0  0  0  0
    0.9392    4.5616    1.5129 C   0  0  0  0  0  0  0  0  0  0  0  0
    2.0652    2.5191    0.9575 C   0  0  0  0  0  0  0  0  0  0  0  0
    0.0430    5.1792    1.3278 H   0  0  0  0  0  0  0  0  0  0  0  0
    1.8368    5.1804    1.2983 H   0  0  0  0  0  0  0  0  0  0  0  0
    0.9463    4.2699    2.5852 H   0  0  0  0  0  0  0  0  0  0  0  0
    1.9682    2.0933    1.9776 H   0  0  0  0  0  0  0  0  0  0  0  0
    2.1241    1.7067    0.2073 H   0  0  0  0  0  0  0  0  0  0  0  0
    3.0144    3.0927    0.8789 H   0  0  0  0  0  0  0  0  0  0  0  0
   -1.6273    3.3333   -0.9268 N   0  0  0  0  0  0  0  0  0  0  0  0
   -0.5463    3.5041   -1.9058 C   0  0  0  0  0  0  0  0  0  0  0  0
   -2.2301    4.6348   -0.6248 C   0  0  0  0  0  0  0  0  0  0  0  0
    0.1427    4.3258   -1.6150 H   0  0  0  0  0  0  0  0  0  0  0  0
    0.0576    2.5801   -1.9700 H   0  0  0  0  0  0  0  0  0  0  0  0
   -0.9737    3.7310   -2.9059 H   0  0  0  0  0  0  0  0  0  0  0  0
   -2.7453    5.0402   -1.5219 H   0  0  0  0  0  0  0  0  0  0  0  0
   -2.7453    5.0402   -1.5219 H   0  0  0  0  0  0  0  0  0  0  0  0
   -1.4831    5.3657   -0.2605 H   0  0  0  0  0  0  0  0  0  0  0  0
  1  8  1  0  0  0  0
  1  5  1  0  0  0  0
  1 24  1  0  0  0  0
  1 34  1  0  0  0  0
  1 43  1  0  0  0  0
  2  3  1  0  0  0  0
  2  9  1  0  0  0  0
  2 10  1  0  0  0  0
  2 11  1  0  0  0  0
  3  4  2  0  0  0  0
  4  5  1  0  0  0  0
  4  8  1  0  0  0  0
  5  6  1  0  0  0  0
  5  7  1  0  0  0  0
  6 12  1  0  0  0  0
  6 13  1  0  0  0  0
  6 14  1  0  0  0  0
  7 15  1  0  0  0  0
  7 16  1  0  0  0  0
  7 17  1  0  0  0  0
 18 19  1  0  0  0  0
 18 25  1  0  0  0  0
 18 26  1  0  0  0  0
 18 27  1  0  0  0  0
 19 20  2  0  0  0  0
 20 21  1  0  0  0  0
 20 24  1  0  0  0  0
 21 22  1  0  0  0  0
 21 23  1  0  0  0  0
 22 28  1  0  0  0  0
 22 29  1  0  0  0  0
 22 30  1  0  0  0  0
 23 31  1  0  0  0  0
 23 32  1  0  0  0  0
 23 33  1  0  0  0  0
 34 35  1  0  0  0  0
 34 36  1  0  0  0  0
 35 37  1  0  0  0  0
 35 38  1  0  0  0  0
 35 39  1  0  0  0  0
 36 40  1  0  0  0  0
 36 41  1  0  0  0  0
 36 42  1  0  0  0  0
 43 44  1  0  0  0  0
 43 45  1  0  0  0  0
 44 46  1  0  0  0  0
 44 47  1  0  0  0  0
 44 48  1  0  0  0  0
 45 49  1  0  0  0  0
 45 50  1  0  0  0  0
 45 51  1  0  0  0  0
M  END
$$$$
