XYZ file generated by Avogadro.
 OpenBabel11152513333D

 51 51  0  0  0  0  0  0  0  0999 V2000
   -0.4371    2.2708    0.9198 Ti  0  0  0  0  0  0  0  0  0  0  0  0
   -1.1298    2.1731    5.7452 C   0  0  0  0  0  0  0  0  0  0  0  0
   -1.7728    2.4212    4.4773 N   0  0  0  0  0  0  0  0  0  0  0  0
   -1.2165    2.4178    3.3092 C   0  0  0  0  0  0  0  0  0  0  0  0
    0.1562    2.1874    2.9314 N   0  0  0  0  0  4  0  0  0  0  0  0
    0.9592    3.3589    3.2645 C   0  0  0  0  0  0  0  0  0  0  0  0
    0.8202    1.0044    3.4782 C   0  0  0  0  0  0  0  0  0  0  0  0
   -1.8850    2.6449    2.1543 O   0  0  0  0  0  0  0  0  0  0  0  0
   -1.8835    2.2873    6.5510 H   0  0  0  0  0  0  0  0  0  0  0  0
   -0.7542    1.1324    5.7958 H   0  0  0  0  0  0  0  0  0  0  0  0
   -0.3231    2.9083    5.9310 H   0  0  0  0  0  0  0  0  0  0  0  0
    1.9293    3.3241    2.7245 H   0  0  0  0  0  0  0  0  0  0  0  0
    0.4337    4.2904    3.0041 H   0  0  0  0  0  0  0  0  0  0  0  0
    1.1685    3.4247    4.3525 H   0  0  0  0  0  0  0  0  0  0  0  0
    0.1853    0.1105    3.4028 H   0  0  0  0  0  0  0  0  0  0  0  0
    1.7826    0.8306    2.9487 H   0  0  0  0  0  0  0  0  0  0  0  0
    1.0563    1.1185    4.5549 H   0  0  0  0  0  0  0  0  0  0  0  0
   -0.0782   -2.3752    1.9620 C   0  0  0  0  0  0  0  0  0  0  0  0
    0.1584   -1.9063    0.6141 N   0  0  0  0  0  0  0  0  0  0  0  0
    0.0678   -0.6743    0.2301 C   0  0  0  0  0  0  0  0  0  0  0  0
    0.2530   -0.3724   -1.1466 N   0  0  0  0  0  0  0  0  0  0  0  0
    1.5740   -0.6548   -1.6835 C   0  0  0  0  0  0  0  0  0  0  0  0
   -0.8305   -0.8086   -2.0130 C   0  0  0  0  0  0  0  0  0  0  0  0
   -0.1974    0.3127    1.1330 O   0  0  0  0  0  0  0  0  0  0  0  0
   -0.6923   -1.6646    2.5477 H   0  0  0  0  0  0  0  0  0  0  0  0
   -0.6579   -3.3193    1.9166 H   0  0  0  0  0  0  0  0  0  0  0  0
    0.8897   -2.5724    2.4682 H   0  0  0  0  0  0  0  0  0  0  0  0
    1.7218   -1.7530   -1.7922 H   0  0  0  0  0  0  0  0  0  0  0  0
    1.6961   -0.1850   -2.6827 H   0  0  0  0  0  0  0  0  0  0  0  0
    2.3611   -0.2524   -1.0114 H   0  0  0  0  0  0  0  0  0  0  0  0
   -1.8141   -0.5880   -1.5494 H   0  0  0  0  0  0  0  0  0  0  0  0
   -0.7774   -1.9059   -2.1844 H   0  0  0  0  0  0  0  0  0  0  0  0
   -0.7748   -0.2922   -2.9951 H   0  0  0  0  0  0  0  0  0  0  0  0
   -0.5784    4.3080    0.3968 N   0  0  0  0  0  0  0  0  0  0  0  0
   -1.6226    5.1246    1.0256 C   0  0  0  0  0  0  0  0  0  0  0  0
    0.7161    4.9980    0.3627 C   0  0  0  0  0  0  0  0  0  0  0  0
   -1.6432    6.1407    0.5749 H   0  0  0  0  0  0  0  0  0  0  0  0
   -1.4516    5.2237    2.1172 H   0  0  0  0  0  0  0  0  0  0  0  0
   -2.6144    4.6626    0.8462 H   0  0  0  0  0  0  0  0  0  0  0  0
    0.6916    5.7929   -0.4119 H   0  0  0  0  0  0  0  0  0  0  0  0
    1.5206    4.2772    0.1158 H   0  0  0  0  0  0  0  0  0  0  0  0
    0.9624    5.4872    1.3254 H   0  0  0  0  0  0  0  0  0  0  0  0
   -1.0235    2.3547   -1.0669 N   0  0  0  0  0  0  0  0  0  0  0  0
   -0.1073    2.6829   -2.1621 C   0  0  0  0  0  0  0  0  0  0  0  0
   -2.4412    2.2256   -1.3859 C   0  0  0  0  0  0  0  0  0  0  0  0
   -0.6373    3.2156   -2.9803 H   0  0  0  0  0  0  0  0  0  0  0  0
    0.7148    3.3250   -1.8013 H   0  0  0  0  0  0  0  0  0  0  0  0
    0.3391    1.7653   -2.5784 H   0  0  0  0  0  0  0  0  0  0  0  0
   -2.8327    3.1820   -1.7894 H   0  0  0  0  0  0  0  0  0  0  0  0
   -3.0006    1.9631   -0.4651 H   0  0  0  0  0  0  0  0  0  0  0  0
   -2.5938    1.4336   -2.1455 H   0  0  0  0  0  0  0  0  0  0  0  0
  1  8  1  0  0  0  0
  1  5  1  0  0  0  0
  1 24  1  0  0  0  0
  1 34  1  0  0  0  0
  1 43  1  0  0  0  0
  2  3  1  0  0  0  0
  2  9  1  0  0  0  0
  2 10  1  0  0  0  0
  2 11  1  0  0  0  0
  3  4  2  0  0  0  0
  4  5  1  0  0  0  0
  4  8  1  0  0  0  0
  5  6  1  0  0  0  0
  5  7  1  0  0  0  0
  6 12  1  0  0  0  0
  6 13  1  0  0  0  0
  6 14  1  0  0  0  0
  7 15  1  0  0  0  0
  7 16  1  0  0  0  0
  7 17  1  0  0  0  0
 18 19  1  0  0  0  0
 18 25  1  0  0  0  0
 18 26  1  0  0  0  0
 18 27  1  0  0  0  0
 19 20  2  0  0  0  0
 20 21  1  0  0  0  0
 20 24  1  0  0  0  0
 21 22  1  0  0  0  0
 21 23  1  0  0  0  0
 22 28  1  0  0  0  0
 22 29  1  0  0  0  0
 22 30  1  0  0  0  0
 23 31  1  0  0  0  0
 23 32  1  0  0  0  0
 23 33  1  0  0  0  0
 34 35  1  0  0  0  0
 34 36  1  0  0  0  0
 35 37  1  0  0  0  0
 35 38  1  0  0  0  0
 35 39  1  0  0  0  0
 36 40  1  0  0  0  0
 36 41  1  0  0  0  0
 36 42  1  0  0  0  0
 43 44  1  0  0  0  0
 43 45  1  0  0  0  0
 44 46  1  0  0  0  0
 44 47  1  0  0  0  0
 44 48  1  0  0  0  0
 45 49  1  0  0  0  0
 45 50  1  0  0  0  0
 45 51  1  0  0  0  0
M  END
>  <fileName>
/Users/dawn_mao/Desktop/PhD_research/chpt4_Ti_ureate/TM_catalyst_framework/src/TM_catalyst_framework/template/u2_d1d2_iso2.sdf

>  <name>
XYZ file generated by Avogadro.

$$$$
