XYZ file generated by Avogadro.
 OpenBabel11102521193D

 51 51  0  0  0  0  0  0  0  0999 V2000
   -0.2280    2.1374    0.8712 Ti  0  0  0  0  0  0  0  0  0  0  0  0
   -0.5605    4.0146    1.8320 N   0  0  0  0  0  0  0  0  0  0  0  0
   -1.8608    4.3889    2.4041 C   0  0  0  0  0  0  0  0  0  0  0  0
    0.5783    4.6673    2.4782 C   0  0  0  0  0  0  0  0  0  0  0  0
   -0.7690    2.5517   -1.0904 N   0  0  0  0  0  0  0  0  0  0  0  0
    0.1027    3.6396   -1.5354 C   0  0  0  0  0  0  0  0  0  0  0  0
   -2.1724    2.9533   -1.2350 C   0  0  0  0  0  0  0  0  0  0  0  0
   -2.8359    2.1214   -0.9235 H   0  0  0  0  0  0  0  0  0  0  0  0
   -2.3921    3.8485   -0.6157 H   0  0  0  0  0  0  0  0  0  0  0  0
   -1.9496    5.4953    2.4592 H   0  0  0  0  0  0  0  0  0  0  0  0
   -0.0403    3.8344   -2.6198 H   0  0  0  0  0  0  0  0  0  0  0  0
   -2.3990    3.1800   -2.2992 H   0  0  0  0  0  0  0  0  0  0  0  0
   -0.0953    4.5657   -0.9537 H   0  0  0  0  0  0  0  0  0  0  0  0
    1.1600    3.3600   -1.3626 H   0  0  0  0  0  0  0  0  0  0  0  0
    1.5171    4.3560    1.9765 H   0  0  0  0  0  0  0  0  0  0  0  0
    0.4845    5.7704    2.3881 H   0  0  0  0  0  0  0  0  0  0  0  0
    0.6171    4.4059    3.5552 H   0  0  0  0  0  0  0  0  0  0  0  0
   -2.6831    4.0240    1.7571 H   0  0  0  0  0  0  0  0  0  0  0  0
   -1.9757    3.9696    3.4249 H   0  0  0  0  0  0  0  0  0  0  0  0
    1.4023    1.6688    3.2971 C   0  0  0  0  0  0  0  0  0  0  0  0
    0.2452    1.8083    2.4478 N   0  0  0  0  0  4  0  0  0  0  0  0
   -1.1951    1.5130    2.6387 C   0  0  0  0  0  0  0  0  0  0  0  0
   -1.9261    1.0310    3.7604 N   0  0  0  0  0  0  0  0  0  0  0  0
   -1.2761    0.8638    5.0436 C   0  0  0  0  0  0  0  0  0  0  0  0
   -3.3290    0.7039    3.6159 C   0  0  0  0  0  0  0  0  0  0  0  0
   -1.5918    1.8324    1.2130 O   0  0  0  0  0  0  0  0  0  0  0  0
    2.3125    1.9420    2.7253 H   0  0  0  0  0  0  0  0  0  0  0  0
    1.3096    2.3260    4.1840 H   0  0  0  0  0  0  0  0  0  0  0  0
    1.4972    0.6213    3.6409 H   0  0  0  0  0  0  0  0  0  0  0  0
   -0.4442    0.1369    4.9610 H   0  0  0  0  0  0  0  0  0  0  0  0
   -1.9895    0.4818    5.8057 H   0  0  0  0  0  0  0  0  0  0  0  0
   -0.8817    1.8407    5.3938 H   0  0  0  0  0  0  0  0  0  0  0  0
   -3.6819    0.8822    2.5774 H   0  0  0  0  0  0  0  0  0  0  0  0
   -3.9341    1.3270    4.3071 H   0  0  0  0  0  0  0  0  0  0  0  0
   -3.4862   -0.3692    3.8573 H   0  0  0  0  0  0  0  0  0  0  0  0
    2.7336    0.7478   -1.4296 C   0  0  0  0  0  0  0  0  0  0  0  0
    2.5522   -0.0957   -0.2678 N   0  0  0  0  0  0  0  0  0  0  0  0
    1.4431   -0.2338    0.3817 C   0  0  0  0  0  0  0  0  0  0  0  0
    1.3621   -1.1750    1.4651 N   0  0  0  0  0  0  0  0  0  0  0  0
    2.5440   -1.8526    1.9752 C   0  0  0  0  0  0  0  0  0  0  0  0
    0.0847   -1.5239    2.0620 C   0  0  0  0  0  0  0  0  0  0  0  0
    0.3479    0.4696    0.0066 O   0  0  0  0  0  0  0  0  0  0  0  0
    1.7865    1.2090   -1.7709 H   0  0  0  0  0  0  0  0  0  0  0  0
    3.4722    1.5421   -1.1991 H   0  0  0  0  0  0  0  0  0  0  0  0
    3.1198    0.1285   -2.2654 H   0  0  0  0  0  0  0  0  0  0  0  0
    3.4741   -1.5348    1.4613 H   0  0  0  0  0  0  0  0  0  0  0  0
    2.4342   -2.9496    1.8424 H   0  0  0  0  0  0  0  0  0  0  0  0
    2.6637   -1.6303    3.0566 H   0  0  0  0  0  0  0  0  0  0  0  0
   -0.7627   -0.9890    1.5893 H   0  0  0  0  0  0  0  0  0  0  0  0
    0.0960   -1.2902    3.1449 H   0  0  0  0  0  0  0  0  0  0  0  0
   -0.0983   -2.6121    1.9387 H   0  0  0  0  0  0  0  0  0  0  0  0
  1  5  1  0  0  0  0
  1  2  1  0  0  0  0
  1 26  1  0  0  0  0
  1 21  1  0  0  0  0
  1 42  1  0  0  0  0
  2  3  1  0  0  0  0
  2  4  1  0  0  0  0
  3 18  1  0  0  0  0
  3 10  1  0  0  0  0
  3 19  1  0  0  0  0
  4 15  1  0  0  0  0
  4 16  1  0  0  0  0
  4 17  1  0  0  0  0
  5  7  1  0  0  0  0
  5  6  1  0  0  0  0
  6 13  1  0  0  0  0
  6 14  1  0  0  0  0
  6 11  1  0  0  0  0
  7  8  1  0  0  0  0
  7  9  1  0  0  0  0
  7 12  1  0  0  0  0
 20 21  1  0  0  0  0
 20 27  1  0  0  0  0
 20 28  1  0  0  0  0
 20 29  1  0  0  0  0
 21 22  2  0  0  0  0
 22 23  1  0  0  0  0
 22 26  1  0  0  0  0
 23 24  1  0  0  0  0
 23 25  1  0  0  0  0
 24 30  1  0  0  0  0
 24 31  1  0  0  0  0
 24 32  1  0  0  0  0
 25 33  1  0  0  0  0
 25 34  1  0  0  0  0
 25 35  1  0  0  0  0
 36 37  1  0  0  0  0
 36 43  1  0  0  0  0
 36 44  1  0  0  0  0
 36 45  1  0  0  0  0
 37 38  2  0  0  0  0
 38 39  1  0  0  0  0
 38 42  1  0  0  0  0
 39 40  1  0  0  0  0
 39 41  1  0  0  0  0
 40 46  1  0  0  0  0
 40 47  1  0  0  0  0
 40 48  1  0  0  0  0
 41 49  1  0  0  0  0
 41 50  1  0  0  0  0
 41 51  1  0  0  0  0
M  END
$$$$
