XYZ file generated by Avogadro.
 OpenBabel11102520183D

 51 52  0  0  0  0  0  0  0  0999 V2000
   -0.9249    2.5164    0.8678 Ti  0  0  0  0  0  0  0  0  0  0  0  0
   -0.9335    4.6235    1.1156 N   0  0  0  0  0  0  0  0  0  0  0  0
   -1.5285    5.0627    2.3853 C   0  0  0  0  0  0  0  0  0  0  0  0
    0.4362    5.1516    1.0736 C   0  0  0  0  0  0  0  0  0  0  0  0
   -0.4116    2.7518   -1.1715 N   0  0  0  0  0  0  0  0  0  0  0  0
    0.9978    2.5579   -1.5447 C   0  0  0  0  0  0  0  0  0  0  0  0
   -0.9672    3.9510   -1.8065 C   0  0  0  0  0  0  0  0  0  0  0  0
   -1.9246    4.2308   -1.3347 H   0  0  0  0  0  0  0  0  0  0  0  0
   -0.2854    4.8205   -1.7268 H   0  0  0  0  0  0  0  0  0  0  0  0
   -1.4813    6.1693    2.4828 H   0  0  0  0  0  0  0  0  0  0  0  0
    1.1098    2.5893   -2.6498 H   0  0  0  0  0  0  0  0  0  0  0  0
   -1.1462    3.7479   -2.8836 H   0  0  0  0  0  0  0  0  0  0  0  0
    1.6526    3.3284   -1.1001 H   0  0  0  0  0  0  0  0  0  0  0  0
    1.3626    1.5724   -1.2136 H   0  0  0  0  0  0  0  0  0  0  0  0
    0.9145    4.9254    0.1151 H   0  0  0  0  0  0  0  0  0  0  0  0
    0.4311    6.2602    1.1613 H   0  0  0  0  0  0  0  0  0  0  0  0
    1.0545    4.7203    1.8889 H   0  0  0  0  0  0  0  0  0  0  0  0
   -2.5954    4.8067    2.4185 H   0  0  0  0  0  0  0  0  0  0  0  0
   -1.0011    4.6027    3.2500 H   0  0  0  0  0  0  0  0  0  0  0  0
   -3.9829    2.6441   -0.2403 C   0  0  0  0  0  0  0  0  0  0  0  0
   -2.9566    2.4891    0.7628 N   0  0  0  0  0  4  0  0  0  0  0  0
   -3.0450    2.3034    2.0656 C   0  0  0  0  0  0  0  0  0  0  0  0
   -4.2373    2.1945    2.8462 N   0  0  0  0  0  0  0  0  0  0  0  0
   -5.0463    3.4001    2.9672 C   0  0  0  0  0  0  0  0  0  0  0  0
   -4.9888    0.9645    2.6742 C   0  0  0  0  0  0  0  0  0  0  0  0
   -1.7555    2.2886    2.5397 O   0  0  0  0  0  0  0  0  0  0  0  0
   -4.6100    3.5306   -0.0172 H   0  0  0  0  0  0  0  0  0  0  0  0
   -4.6172    1.7362   -0.2732 H   0  0  0  0  0  0  0  0  0  0  0  0
   -3.5279    2.7555   -1.2410 H   0  0  0  0  0  0  0  0  0  0  0  0
   -4.9575    3.7914    4.0020 H   0  0  0  0  0  0  0  0  0  0  0  0
   -6.1213    3.2032    2.7597 H   0  0  0  0  0  0  0  0  0  0  0  0
   -4.7260    4.1948    2.2636 H   0  0  0  0  0  0  0  0  0  0  0  0
   -4.3210    0.0835    2.7631 H   0  0  0  0  0  0  0  0  0  0  0  0
   -5.4940    0.9467    1.6861 H   0  0  0  0  0  0  0  0  0  0  0  0
   -5.7647    0.8785    3.4655 H   0  0  0  0  0  0  0  0  0  0  0  0
    1.8955   -1.3726    1.4352 C   0  0  0  0  0  0  0  0  0  0  0  0
    1.8855    0.0695    1.4994 N   0  0  0  0  0  0  0  0  0  0  0  0
    0.8674    0.8378    1.2841 C   0  0  0  0  0  0  0  0  0  0  0  0
   -0.4919    0.4932    0.8911 N   0  0  0  0  0  4  0  0  0  0  0  0
   -1.1980   -0.3193    1.8849 C   0  0  0  0  0  0  0  0  0  0  0  0
   -0.6610   -0.1500   -0.4194 C   0  0  0  0  0  0  0  0  0  0  0  0
    0.9012    2.2041    1.3560 O   0  0  0  0  0  0  0  0  0  0  0  0
    1.5713   -1.7311    0.4383 H   0  0  0  0  0  0  0  0  0  0  0  0
    1.2672   -1.8037    2.2377 H   0  0  0  0  0  0  0  0  0  0  0  0
    2.9328   -1.7269    1.6066 H   0  0  0  0  0  0  0  0  0  0  0  0
   -0.8405   -1.3683    1.8902 H   0  0  0  0  0  0  0  0  0  0  0  0
   -2.2833   -0.3456    1.6552 H   0  0  0  0  0  0  0  0  0  0  0  0
   -1.0541    0.0726    2.9131 H   0  0  0  0  0  0  0  0  0  0  0  0
   -1.2338   -1.1056   -0.3879 H   0  0  0  0  0  0  0  0  0  0  0  0
    0.3115   -0.3888   -0.8947 H   0  0  0  0  0  0  0  0  0  0  0  0
   -1.2362    0.5068   -1.0956 H   0  0  0  0  0  0  0  0  0  0  0  0
  1  5  1  0  0  0  0
  1  2  1  0  0  0  0
  1 26  1  0  0  0  0
  1 21  1  0  0  0  0
  1 42  1  0  0  0  0
  1 39  1  0  0  0  0
  2  3  1  0  0  0  0
  2  4  1  0  0  0  0
  3 18  1  0  0  0  0
  3 10  1  0  0  0  0
  3 19  1  0  0  0  0
  4 15  1  0  0  0  0
  4 16  1  0  0  0  0
  4 17  1  0  0  0  0
  5  7  1  0  0  0  0
  5  6  1  0  0  0  0
  6 13  1  0  0  0  0
  6 14  1  0  0  0  0
  6 11  1  0  0  0  0
  7  8  1  0  0  0  0
  7  9  1  0  0  0  0
  7 12  1  0  0  0  0
 20 21  1  0  0  0  0
 20 27  1  0  0  0  0
 20 28  1  0  0  0  0
 20 29  1  0  0  0  0
 21 22  2  0  0  0  0
 22 23  1  0  0  0  0
 22 26  1  0  0  0  0
 23 24  1  0  0  0  0
 23 25  1  0  0  0  0
 24 30  1  0  0  0  0
 24 31  1  0  0  0  0
 24 32  1  0  0  0  0
 25 33  1  0  0  0  0
 25 34  1  0  0  0  0
 25 35  1  0  0  0  0
 36 37  1  0  0  0  0
 36 43  1  0  0  0  0
 36 44  1  0  0  0  0
 36 45  1  0  0  0  0
 37 38  2  0  0  0  0
 38 39  1  0  0  0  0
 38 42  1  0  0  0  0
 39 40  1  0  0  0  0
 39 41  1  0  0  0  0
 40 46  1  0  0  0  0
 40 47  1  0  0  0  0
 40 48  1  0  0  0  0
 41 49  1  0  0  0  0
 41 50  1  0  0  0  0
 41 51  1  0  0  0  0
M  END
>  <fileName>
/Users/dawn_mao/Desktop/PhD_research/chpt4_Ti_ureate/TM_catalyst_framework/src/TM_catalyst_framework/template/u2_d2d2_iso3.sdf

>  <name>
XYZ file generated by Avogadro.

$$$$
