XYZ file generated by Avogadro.
 OpenBabel11102521573D

 51 51  0  0  0  0  0  0  0  0999 V2000
   -0.7715    2.6232    1.0638 Ti  0  0  0  0  0  0  0  0  0  0  0  0
   -0.9338    4.4810    2.1291 N   0  0  0  0  0  0  0  0  0  0  0  0
   -1.4733    5.6322    1.3833 C   0  0  0  0  0  0  0  0  0  0  0  0
    0.3970    4.8831    2.6259 C   0  0  0  0  0  0  0  0  0  0  0  0
   -1.0234    3.0280   -1.0045 N   0  0  0  0  0  0  0  0  0  0  0  0
    0.3155    3.1737   -1.5973 C   0  0  0  0  0  0  0  0  0  0  0  0
   -1.8527    4.1404   -1.4756 C   0  0  0  0  0  0  0  0  0  0  0  0
   -2.8917    4.0310   -1.1554 H   0  0  0  0  0  0  0  0  0  0  0  0
   -1.4247    5.1181   -1.1945 H   0  0  0  0  0  0  0  0  0  0  0  0
   -0.7260    6.0597    0.6815 H   0  0  0  0  0  0  0  0  0  0  0  0
    0.2560    3.2774   -2.7028 H   0  0  0  0  0  0  0  0  0  0  0  0
   -1.9013    4.1263   -2.5859 H   0  0  0  0  0  0  0  0  0  0  0  0
    0.8348    4.0536   -1.1616 H   0  0  0  0  0  0  0  0  0  0  0  0
    0.9360    2.2791   -1.4063 H   0  0  0  0  0  0  0  0  0  0  0  0
    1.1367    4.8351    1.7981 H   0  0  0  0  0  0  0  0  0  0  0  0
    0.3904    5.9174    3.0385 H   0  0  0  0  0  0  0  0  0  0  0  0
    0.7269    4.2188    3.4481 H   0  0  0  0  0  0  0  0  0  0  0  0
   -2.3887    5.3874    0.8281 H   0  0  0  0  0  0  0  0  0  0  0  0
   -1.7649    6.4262    2.1060 H   0  0  0  0  0  0  0  0  0  0  0  0
   -3.7691    1.1146    4.1038 C   0  0  0  0  0  0  0  0  0  0  0  0
   -2.3793    1.4670    3.9575 N   0  0  0  0  0  0  0  0  0  0  0  0
   -1.8591    1.9407    2.8772 C   0  0  0  0  0  0  0  0  0  0  0  0
   -2.4304    2.2604    1.3821 N   0  0  0  0  0  4  0  0  0  0  0  0
   -3.5278    3.2225    1.5482 C   0  0  0  0  0  0  0  0  0  0  0  0
   -2.9287    1.1070    0.6226 C   0  0  0  0  0  0  0  0  0  0  0  0
   -0.4097    2.3061    2.5563 O   0  0  0  0  0  0  0  0  0  0  0  0
   -3.9209    0.6684    5.1079 H   0  0  0  0  0  0  0  0  0  0  0  0
   -4.4086    2.0167    4.0414 H   0  0  0  0  0  0  0  0  0  0  0  0
   -4.0613    0.3669    3.3367 H   0  0  0  0  0  0  0  0  0  0  0  0
   -3.8714    3.6509    0.5988 H   0  0  0  0  0  0  0  0  0  0  0  0
   -4.4267    2.7245    1.9635 H   0  0  0  0  0  0  0  0  0  0  0  0
   -3.3025    4.0133    2.2864 H   0  0  0  0  0  0  0  0  0  0  0  0
   -2.7686    0.1680    1.1931 H   0  0  0  0  0  0  0  0  0  0  0  0
   -4.0149    1.1601    0.3799 H   0  0  0  0  0  0  0  0  0  0  0  0
   -2.4261    1.0205   -0.3560 H   0  0  0  0  0  0  0  0  0  0  0  0
   -0.1395   -1.5617   -0.8854 C   0  0  0  0  0  0  0  0  0  0  0  0
    0.9028   -1.0480   -0.0265 N   0  0  0  0  0  0  0  0  0  0  0  0
    0.8851    0.1385    0.4842 C   0  0  0  0  0  0  0  0  0  0  0  0
    1.9899    0.5677    1.2979 N   0  0  0  0  0  0  0  0  0  0  0  0
    2.9390   -0.3914    1.8438 C   0  0  0  0  0  0  0  0  0  0  0  0
    2.2498    1.9700    1.5508 C   0  0  0  0  0  0  0  0  0  0  0  0
   -0.1696    0.9516    0.2040 O   0  0  0  0  0  0  0  0  0  0  0  0
    0.1323   -2.5859   -1.2144 H   0  0  0  0  0  0  0  0  0  0  0  0
   -0.2437   -0.9174   -1.7855 H   0  0  0  0  0  0  0  0  0  0  0  0
   -1.1044   -1.6011   -0.3375 H   0  0  0  0  0  0  0  0  0  0  0  0
    3.9540   -0.1900    1.4411 H   0  0  0  0  0  0  0  0  0  0  0  0
    2.6726   -1.4411    1.6015 H   0  0  0  0  0  0  0  0  0  0  0  0
    2.9637   -0.3014    2.9505 H   0  0  0  0  0  0  0  0  0  0  0  0
    1.5344    2.6220    1.0203 H   0  0  0  0  0  0  0  0  0  0  0  0
    3.2605    2.2328    1.1734 H   0  0  0  0  0  0  0  0  0  0  0  0
    2.2126    2.1727    2.6418 H   0  0  0  0  0  0  0  0  0  0  0  0
  1  5  1  0  0  0  0
  1  2  1  0  0  0  0
  1 26  1  0  0  0  0
  1 23  1  0  0  0  0
  1 42  1  0  0  0  0
  2  3  1  0  0  0  0
  2  4  1  0  0  0  0
  3 18  1  0  0  0  0
  3 10  1  0  0  0  0
  3 19  1  0  0  0  0
  4 15  1  0  0  0  0
  4 16  1  0  0  0  0
  4 17  1  0  0  0  0
  5  7  1  0  0  0  0
  5  6  1  0  0  0  0
  6 13  1  0  0  0  0
  6 14  1  0  0  0  0
  6 11  1  0  0  0  0
  7  8  1  0  0  0  0
  7  9  1  0  0  0  0
  7 12  1  0  0  0  0
 20 21  1  0  0  0  0
 20 27  1  0  0  0  0
 20 28  1  0  0  0  0
 20 29  1  0  0  0  0
 21 22  2  0  0  0  0
 22 23  1  0  0  0  0
 22 26  1  0  0  0  0
 23 24  1  0  0  0  0
 23 25  1  0  0  0  0
 24 30  1  0  0  0  0
 24 31  1  0  0  0  0
 24 32  1  0  0  0  0
 25 33  1  0  0  0  0
 25 34  1  0  0  0  0
 25 35  1  0  0  0  0
 36 37  1  0  0  0  0
 36 43  1  0  0  0  0
 36 44  1  0  0  0  0
 36 45  1  0  0  0  0
 37 38  2  0  0  0  0
 38 39  1  0  0  0  0
 38 42  1  0  0  0  0
 39 40  1  0  0  0  0
 39 41  1  0  0  0  0
 40 46  1  0  0  0  0
 40 47  1  0  0  0  0
 40 48  1  0  0  0  0
 41 49  1  0  0  0  0
 41 50  1  0  0  0  0
 41 51  1  0  0  0  0
M  END
$$$$
