
 OpenBabel11102520203D

 51 52  0  0  0  0  0  0  0  0999 V2000
   -1.1238    2.2162    1.1704 Ti  0  0  0  0  0  0  0  0  0  0  0  0
   -0.8925    4.2709    1.5343 N   0  0  0  0  0  0  0  0  0  0  0  0
   -2.0763    5.0519    1.8978 C   0  0  0  0  0  0  0  0  0  0  0  0
    0.4015    4.8444    1.9273 C   0  0  0  0  0  0  0  0  0  0  0  0
   -0.8735    2.5571   -0.8758 N   0  0  0  0  0  0  0  0  0  0  0  0
    0.5161    2.8856   -1.1923 C   0  0  0  0  0  0  0  0  0  0  0  0
   -1.7797    3.5825   -1.4028 C   0  0  0  0  0  0  0  0  0  0  0  0
   -2.8321    3.2928   -1.2171 H   0  0  0  0  0  0  0  0  0  0  0  0
   -1.5840    4.5695   -0.9369 H   0  0  0  0  0  0  0  0  0  0  0  0
   -1.9561    6.1035    1.5616 H   0  0  0  0  0  0  0  0  0  0  0  0
    0.6585    2.9291   -2.2935 H   0  0  0  0  0  0  0  0  0  0  0  0
   -1.6553    3.6743   -2.5034 H   0  0  0  0  0  0  0  0  0  0  0  0
    0.8004    3.8642   -0.7572 H   0  0  0  0  0  0  0  0  0  0  0  0
    1.1839    2.0957   -0.7953 H   0  0  0  0  0  0  0  0  0  0  0  0
    1.2299    4.2931    1.4448 H   0  0  0  0  0  0  0  0  0  0  0  0
    0.4641    5.9012    1.5918 H   0  0  0  0  0  0  0  0  0  0  0  0
    0.5598    4.8232    3.0203 H   0  0  0  0  0  0  0  0  0  0  0  0
   -2.9668    4.6329    1.3888 H   0  0  0  0  0  0  0  0  0  0  0  0
   -2.2498    5.0536    2.9897 H   0  0  0  0  0  0  0  0  0  0  0  0
   -1.0280   -0.9184    0.5553 C   0  0  0  0  0  0  0  0  0  0  0  0
   -1.7285    0.3328    0.7456 N   0  0  0  0  0  4  0  0  0  0  0  0
   -2.9908    0.7325    0.6622 C   0  0  0  0  0  0  0  0  0  0  0  0
   -4.1746   -0.0240    0.3514 N   0  0  0  0  0  0  0  0  0  0  0  0
   -4.2374   -1.4735    0.2923 C   0  0  0  0  0  0  0  0  0  0  0  0
   -5.4132    0.6891    0.0945 C   0  0  0  0  0  0  0  0  0  0  0  0
   -2.9701    2.0825    0.9096 O   0  0  0  0  0  0  0  0  0  0  0  0
   -1.2073   -1.2930   -0.4742 H   0  0  0  0  0  0  0  0  0  0  0  0
   -1.3321   -1.6832    1.2954 H   0  0  0  0  0  0  0  0  0  0  0  0
    0.0599   -0.7421    0.6802 H   0  0  0  0  0  0  0  0  0  0  0  0
   -4.9891   -1.8382    1.0251 H   0  0  0  0  0  0  0  0  0  0  0  0
   -3.2966   -1.9691    0.5402 H   0  0  0  0  0  0  0  0  0  0  0  0
   -4.5419   -1.7972   -0.7245 H   0  0  0  0  0  0  0  0  0  0  0  0
   -5.2830    1.7904    0.1465 H   0  0  0  0  0  0  0  0  0  0  0  0
   -6.1819    0.3943    0.8395 H   0  0  0  0  0  0  0  0  0  0  0  0
   -5.7810    0.4405   -0.9241 H   0  0  0  0  0  0  0  0  0  0  0  0
    2.6779    1.0330    3.6064 C   0  0  0  0  0  0  0  0  0  0  0  0
    1.2718    1.1632    3.8977 N   0  0  0  0  0  0  0  0  0  0  0  0
    0.4242    1.5475    3.0094 C   0  0  0  0  0  0  0  0  0  0  0  0
   -1.0002    1.6920    3.1806 N   0  0  0  0  0  4  0  0  0  0  0  0
   -1.6743    0.4687    3.6233 C   0  0  0  0  0  0  0  0  0  0  0  0
   -1.4059    2.7072    4.1484 C   0  0  0  0  0  0  0  0  0  0  0  0
    0.6903    1.8774    1.7046 O   0  0  0  0  0  0  0  0  0  0  0  0
    3.0963    2.0148    3.2979 H   0  0  0  0  0  0  0  0  0  0  0  0
    3.2086    0.6841    4.5159 H   0  0  0  0  0  0  0  0  0  0  0  0
    2.8316    0.2894    2.7947 H   0  0  0  0  0  0  0  0  0  0  0  0
   -2.7789    0.5689    3.5384 H   0  0  0  0  0  0  0  0  0  0  0  0
   -1.4135    0.2171    4.6766 H   0  0  0  0  0  0  0  0  0  0  0  0
   -1.3481   -0.4074    3.0526 H   0  0  0  0  0  0  0  0  0  0  0  0
   -1.1455    2.4071    5.1894 H   0  0  0  0  0  0  0  0  0  0  0  0
   -0.8801    3.6503    3.9971 H   0  0  0  0  0  0  0  0  0  0  0  0
   -2.5007    2.8928    4.0875 H   0  0  0  0  0  0  0  0  0  0  0  0
  1  5  1  0  0  0  0
  1  2  1  0  0  0  0
  1 26  1  0  0  0  0
  1 21  1  0  0  0  0
  1 42  1  0  0  0  0
  1 39  1  0  0  0  0
  2  3  1  0  0  0  0
  2  4  1  0  0  0  0
  3 18  1  0  0  0  0
  3 10  1  0  0  0  0
  3 19  1  0  0  0  0
  4 15  1  0  0  0  0
  4 16  1  0  0  0  0
  4 17  1  0  0  0  0
  5  7  1  0  0  0  0
  5  6  1  0  0  0  0
  6 13  1  0  0  0  0
  6 14  1  0  0  0  0
  6 11  1  0  0  0  0
  7  8  1  0  0  0  0
  7  9  1  0  0  0  0
  7 12  1  0  0  0  0
 20 21  1  0  0  0  0
 20 27  1  0  0  0  0
 20 28  1  0  0  0  0
 20 29  1  0  0  0  0
 21 22  2  0  0  0  0
 22 23  1  0  0  0  0
 22 26  1  0  0  0  0
 23 24  1  0  0  0  0
 23 25  1  0  0  0  0
 24 30  1  0  0  0  0
 24 31  1  0  0  0  0
 24 32  1  0  0  0  0
 25 33  1  0  0  0  0
 25 34  1  0  0  0  0
 25 35  1  0  0  0  0
 36 37  1  0  0  0  0
 36 43  1  0  0  0  0
 36 44  1  0  0  0  0
 36 45  1  0  0  0  0
 37 38  2  0  0  0  0
 38 39  1  0  0  0  0
 38 42  1  0  0  0  0
 39 40  1  0  0  0  0
 39 41  1  0  0  0  0
 40 46  1  0  0  0  0
 40 47  1  0  0  0  0
 40 48  1  0  0  0  0
 41 49  1  0  0  0  0
 41 50  1  0  0  0  0
 41 51  1  0  0  0  0
M  END
$$$$
