XYZ file generated by Avogadro.
 OpenBabel11062523153D

 28 28  0  0  0  0  0  0  0  0999 V2000
    0.3340    1.0060   -0.1730 Ti  0  0  0  0  0  0  0  0  0  0  0  0
    2.3458    2.0156   -0.6921 N   0  0  0  0  0  0  0  0  0  0  0  0
    3.4183    1.4137    0.1132 C   0  0  0  0  0  0  0  0  0  0  0  0
    2.6373    1.8218   -2.1198 C   0  0  0  0  0  0  0  0  0  0  0  0
   -0.6750    3.0180   -0.6925 N   0  0  0  0  0  0  0  0  0  0  0  0
   -2.1284    2.8997   -0.5067 C   0  0  0  0  0  0  0  0  0  0  0  0
   -0.3864    3.3640   -2.0918 C   0  0  0  0  0  0  0  0  0  0  0  0
    0.0784    0.2347   -2.6638 Cl  0  0  0  0  0  0  0  0  0  0  0  0
   -0.7669    2.5977   -2.7344 H   0  0  0  0  0  0  0  0  0  0  0  0
   -0.8538    4.2960   -2.3324 H   0  0  0  0  0  0  0  0  0  0  0  0
   -1.0070    0.3330    0.1730 F   0  0  0  0  0  0  0  0  0  0  0  0
    4.3501    1.8814   -0.1273 H   0  0  0  0  0  0  0  0  0  0  0  0
   -2.5958    3.8316   -0.7474 H   0  0  0  0  0  0  0  0  0  0  0  0
    0.6715    3.4501   -2.2270 H   0  0  0  0  0  0  0  0  0  0  0  0
   -2.5089    2.1334   -1.1494 H   0  0  0  0  0  0  0  0  0  0  0  0
   -2.3385    2.6478    0.5118 H   0  0  0  0  0  0  0  0  0  0  0  0
    2.6983    0.7749   -2.3324 H   0  0  0  0  0  0  0  0  0  0  0  0
    1.8567    2.2599   -2.7059 H   0  0  0  0  0  0  0  0  0  0  0  0
    3.5692    2.2895   -2.3602 H   0  0  0  0  0  0  0  0  0  0  0  0
    3.4793    0.3669   -0.0995 H   0  0  0  0  0  0  0  0  0  0  0  0
    3.2060    1.5549    1.1524 H   0  0  0  0  0  0  0  0  0  0  0  0
    0.6257    1.8862    2.6696 I   0  0  0  0  0  0  0  0  0  0  0  0
    1.0060   -0.3340    0.1730 Br  0  0  0  0  0  2  0  0  0  0  0  0
   -0.3330   -1.0050   -0.1730 C   0  0  0  0  0  0  0  0  0  0  0  0
   -0.4322   -1.3046   -1.1954 H   0  0  0  0  0  0  0  0  0  0  0  0
   -0.6378   -1.9252    0.2800 H   0  0  0  0  0  0  0  0  0  0  0  0
    0.4346   -1.7151    0.0536 H   0  0  0  0  0  0  0  0  0  0  0  0
    0.2508   -1.5815   -0.8598 H   0  0  0  0  0  0  0  0  0  0  0  0
  1 11  1  0  0  0  0
  1  8  1  0  0  0  0
  1  5  1  0  0  0  0
  1  2  1  0  0  0  0
  1 22  1  0  0  0  0
  1 23  1  0  0  0  0
  2  3  1  0  0  0  0
  2  4  1  0  0  0  0
  3 20  1  0  0  0  0
  3 12  1  0  0  0  0
  3 21  1  0  0  0  0
  4 17  1  0  0  0  0
  4 18  1  0  0  0  0
  4 19  1  0  0  0  0
  5  7  1  0  0  0  0
  5  6  1  0  0  0  0
  6 15  1  0  0  0  0
  6 16  1  0  0  0  0
  6 13  1  0  0  0  0
  7  9  1  0  0  0  0
  7 10  1  0  0  0  0
  7 14  1  0  0  0  0
 11 24  1  0  0  0  0
 23 24  1  0  0  0  0
 24 25  1  0  0  0  0
 24 26  1  0  0  0  0
 24 27  1  0  0  0  0
 24 28  1  0  0  0  0
M  END
>  <fileName>
/Users/dawn_mao/Desktop/PhD_research/chpt4_Ti_ureate/TM_catalyst_framework/src/TM_catalyst_framework/metal_center_template/u2_d1_d2_ON2.sdf

>  <name>
XYZ file generated by Avogadro.

>  <totalCharge>
0

>  <totalSpinMultiplicity>
1

$$$$
