
 OpenBabel11102520393D

 51 52  0  0  0  0  0  0  0  0999 V2000
   -0.8288    2.2072    0.8100 Ti  0  0  0  0  0  0  0  0  0  0  0  0
   -0.7534    4.2554    1.4092 N   0  0  0  0  0  0  0  0  0  0  0  0
   -1.9530    4.6231    2.1678 C   0  0  0  0  0  0  0  0  0  0  0  0
    0.4264    4.8090    2.0679 C   0  0  0  0  0  0  0  0  0  0  0  0
   -0.5151    2.7740   -1.2028 N   0  0  0  0  0  0  0  0  0  0  0  0
    0.8133    3.3336   -1.4515 C   0  0  0  0  0  0  0  0  0  0  0  0
   -1.5451    3.6817   -1.7131 C   0  0  0  0  0  0  0  0  0  0  0  0
   -2.4950    3.1302   -1.8223 H   0  0  0  0  0  0  0  0  0  0  0  0
   -1.6637    4.5597   -1.0456 H   0  0  0  0  0  0  0  0  0  0  0  0
   -1.8580    5.6103    2.6724 H   0  0  0  0  0  0  0  0  0  0  0  0
    0.9245    3.6337   -2.5162 H   0  0  0  0  0  0  0  0  0  0  0  0
   -1.2995    4.0352   -2.7385 H   0  0  0  0  0  0  0  0  0  0  0  0
    0.9949    4.2179   -0.8111 H   0  0  0  0  0  0  0  0  0  0  0  0
    1.5773    2.5550   -1.2934 H   0  0  0  0  0  0  0  0  0  0  0  0
    1.2948    4.7618    1.3914 H   0  0  0  0  0  0  0  0  0  0  0  0
    0.3001    5.9005    2.2405 H   0  0  0  0  0  0  0  0  0  0  0  0
    0.5822    4.3269    3.0559 H   0  0  0  0  0  0  0  0  0  0  0  0
   -2.7878    4.7678    1.4697 H   0  0  0  0  0  0  0  0  0  0  0  0
   -2.1846    3.8471    2.9254 H   0  0  0  0  0  0  0  0  0  0  0  0
   -4.0407    2.8216    0.4217 C   0  0  0  0  0  0  0  0  0  0  0  0
   -2.8426    2.0039    0.4619 N   0  0  0  0  0  4  0  0  0  0  0  0
   -2.6749    0.7202    0.1978 C   0  0  0  0  0  0  0  0  0  0  0  0
   -3.6646   -0.2653   -0.1191 N   0  0  0  0  0  0  0  0  0  0  0  0
   -4.7923   -0.4039    0.7921 C   0  0  0  0  0  0  0  0  0  0  0  0
   -3.1362   -1.5194   -0.6247 C   0  0  0  0  0  0  0  0  0  0  0  0
   -1.3338    0.4742    0.2821 O   0  0  0  0  0  0  0  0  0  0  0  0
   -3.8886    3.7116   -0.2163 H   0  0  0  0  0  0  0  0  0  0  0  0
   -4.3143    3.1416    1.4473 H   0  0  0  0  0  0  0  0  0  0  0  0
   -4.8908    2.2827   -0.0331 H   0  0  0  0  0  0  0  0  0  0  0  0
   -4.4475   -0.8799    1.7360 H   0  0  0  0  0  0  0  0  0  0  0  0
   -5.5767   -1.0466    0.3390 H   0  0  0  0  0  0  0  0  0  0  0  0
   -5.2633    0.5513    1.0645 H   0  0  0  0  0  0  0  0  0  0  0  0
   -2.4230   -1.3299   -1.4561 H   0  0  0  0  0  0  0  0  0  0  0  0
   -2.6100   -2.0684    0.1871 H   0  0  0  0  0  0  0  0  0  0  0  0
   -3.9547   -2.1569   -1.0213 H   0  0  0  0  0  0  0  0  0  0  0  0
    2.3900   -0.0846    3.6224 C   0  0  0  0  0  0  0  0  0  0  0  0
    1.0457    0.4382    3.5759 N   0  0  0  0  0  0  0  0  0  0  0  0
    0.5136    1.1260    2.6157 C   0  0  0  0  0  0  0  0  0  0  0  0
    1.0794    1.5297    1.3342 N   0  0  0  0  0  4  0  0  0  0  0  0
    1.4422    0.4074    0.4523 C   0  0  0  0  0  0  0  0  0  0  0  0
    2.2590    2.3832    1.5130 C   0  0  0  0  0  0  0  0  0  0  0  0
   -0.7872    1.5505    2.6114 O   0  0  0  0  0  0  0  0  0  0  0  0
    2.5920   -0.7425    2.7533 H   0  0  0  0  0  0  0  0  0  0  0  0
    3.1296    0.7351    3.6866 H   0  0  0  0  0  0  0  0  0  0  0  0
    2.4977   -0.6975    4.5409 H   0  0  0  0  0  0  0  0  0  0  0  0
    2.5096    0.4067    0.1330 H   0  0  0  0  0  0  0  0  0  0  0  0
    1.2356   -0.5785    0.9205 H   0  0  0  0  0  0  0  0  0  0  0  0
    0.8653    0.4563   -0.4894 H   0  0  0  0  0  0  0  0  0  0  0  0
    2.5355    2.9270    0.5953 H   0  0  0  0  0  0  0  0  0  0  0  0
    2.1674    3.0618    2.3711 H   0  0  0  0  0  0  0  0  0  0  0  0
    3.1512    1.7840    1.7843 H   0  0  0  0  0  0  0  0  0  0  0  0
  1  5  1  0  0  0  0
  1  2  1  0  0  0  0
  1 26  1  0  0  0  0
  1 21  1  0  0  0  0
  1 42  1  0  0  0  0
  1 39  1  0  0  0  0
  2  3  1  0  0  0  0
  2  4  1  0  0  0  0
  3 18  1  0  0  0  0
  3 10  1  0  0  0  0
  3 19  1  0  0  0  0
  4 15  1  0  0  0  0
  4 16  1  0  0  0  0
  4 17  1  0  0  0  0
  5  7  1  0  0  0  0
  5  6  1  0  0  0  0
  6 13  1  0  0  0  0
  6 14  1  0  0  0  0
  6 11  1  0  0  0  0
  7  8  1  0  0  0  0
  7  9  1  0  0  0  0
  7 12  1  0  0  0  0
 20 21  1  0  0  0  0
 20 27  1  0  0  0  0
 20 28  1  0  0  0  0
 20 29  1  0  0  0  0
 21 22  2  0  0  0  0
 22 23  1  0  0  0  0
 22 26  1  0  0  0  0
 23 24  1  0  0  0  0
 23 25  1  0  0  0  0
 24 30  1  0  0  0  0
 24 31  1  0  0  0  0
 24 32  1  0  0  0  0
 25 33  1  0  0  0  0
 25 34  1  0  0  0  0
 25 35  1  0  0  0  0
 36 37  1  0  0  0  0
 36 43  1  0  0  0  0
 36 44  1  0  0  0  0
 36 45  1  0  0  0  0
 37 38  2  0  0  0  0
 38 39  1  0  0  0  0
 38 42  1  0  0  0  0
 39 40  1  0  0  0  0
 39 41  1  0  0  0  0
 40 46  1  0  0  0  0
 40 47  1  0  0  0  0
 40 48  1  0  0  0  0
 41 49  1  0  0  0  0
 41 50  1  0  0  0  0
 41 51  1  0  0  0  0
M  END
$$$$
