XYZ file generated by Avogadro.
 OpenBabel11062522093D

 51 50  0  0  0  0  0  0  0  0999 V2000
    0.3222   -0.0421    0.9795 Ti  0  0  0  0  0  0  0  0  0  0  0  0
    0.0708    2.0002    1.2230 N   0  0  0  0  0  0  0  0  0  0  0  0
   -1.3424    2.3614    1.1344 C   0  0  0  0  0  0  0  0  0  0  0  0
    0.6012    2.3649    2.5366 C   0  0  0  0  0  0  0  0  0  0  0  0
    0.6476   -2.0925    0.7815 N   0  0  0  0  0  0  0  0  0  0  0  0
    0.9045   -2.5124   -0.5956 C   0  0  0  0  0  0  0  0  0  0  0  0
   -0.4307   -2.8712    1.3871 C   0  0  0  0  0  0  0  0  0  0  0  0
   -1.3506   -2.8272    0.7742 H   0  0  0  0  0  0  0  0  0  0  0  0
   -0.1205   -3.9333    1.4866 H   0  0  0  0  0  0  0  0  0  0  0  0
   -1.4785    3.4485    1.3218 H   0  0  0  0  0  0  0  0  0  0  0  0
    1.2147   -3.5790   -0.6174 H   0  0  0  0  0  0  0  0  0  0  0  0
   -0.6503   -2.4716    2.3978 H   0  0  0  0  0  0  0  0  0  0  0  0
   -0.0016   -2.3880   -1.2241 H   0  0  0  0  0  0  0  0  0  0  0  0
    1.7318   -1.9052   -1.0172 H   0  0  0  0  0  0  0  0  0  0  0  0
    0.0658    1.8142    3.3398 H   0  0  0  0  0  0  0  0  0  0  0  0
    1.6771    2.1027    2.5855 H   0  0  0  0  0  0  0  0  0  0  0  0
    0.5089    3.4597    2.7040 H   0  0  0  0  0  0  0  0  0  0  0  0
   -1.9408    1.7792    1.8674 H   0  0  0  0  0  0  0  0  0  0  0  0
   -1.7085    2.1596    0.1102 H   0  0  0  0  0  0  0  0  0  0  0  0
   -2.5669   -0.4707   -0.0272 C   0  0  0  0  0  0  0  0  0  0  0  0
   -2.1322   -0.1745   -1.3710 N   0  0  0  0  0  0  0  0  0  0  0  0
   -0.9433    0.1349   -1.7843 C   0  0  0  0  0  0  0  0  0  0  0  0
   -0.7383    0.3901   -3.1849 N   0  0  0  0  0  0  0  0  0  0  0  0
    0.5787    0.7266   -3.7000 C   0  0  0  0  0  0  0  0  0  0  0  0
   -1.8297    0.3238   -4.1458 C   0  0  0  0  0  0  0  0  0  0  0  0
    0.1283    0.2359   -0.9479 O   0  0  0  0  0  0  0  0  0  0  0  0
    1.9494   -1.0732    3.3355 C   0  0  0  0  0  0  0  0  0  0  0  0
    3.1195   -1.0559    2.4867 N   0  0  0  0  0  0  0  0  0  0  0  0
    3.2590   -0.4315    1.3605 C   0  0  0  0  0  0  0  0  0  0  0  0
    4.5340   -0.4501    0.6967 N   0  0  0  0  0  0  0  0  0  0  0  0
    4.7282    0.2388   -0.5683 C   0  0  0  0  0  0  0  0  0  0  0  0
    5.6793   -1.1532    1.2548 C   0  0  0  0  0  0  0  0  0  0  0  0
    2.2418    0.2757    0.8031 O   0  0  0  0  0  0  0  0  0  0  0  0
   -3.3448    0.2613    0.2710 H   0  0  0  0  0  0  0  0  0  0  0  0
   -1.7507   -0.4364    0.7056 H   0  0  0  0  0  0  0  0  0  0  0  0
   -3.0286   -1.4781   -0.0131 H   0  0  0  0  0  0  0  0  0  0  0  0
    1.3548    0.7543   -2.9084 H   0  0  0  0  0  0  0  0  0  0  0  0
    0.5471    1.7264   -4.1826 H   0  0  0  0  0  0  0  0  0  0  0  0
    0.8888   -0.0282   -4.4534 H   0  0  0  0  0  0  0  0  0  0  0  0
   -2.8008    0.0633   -3.6784 H   0  0  0  0  0  0  0  0  0  0  0  0
   -1.6048   -0.4459   -4.9142 H   0  0  0  0  0  0  0  0  0  0  0  0
   -1.9473    1.3086   -4.6455 H   0  0  0  0  0  0  0  0  0  0  0  0
    2.2301   -0.6931    4.3389 H   0  0  0  0  0  0  0  0  0  0  0  0
    1.5927   -2.1172    3.4459 H   0  0  0  0  0  0  0  0  0  0  0  0
    1.1329   -0.4382    2.9564 H   0  0  0  0  0  0  0  0  0  0  0  0
    3.8080    0.7445   -0.9253 H   0  0  0  0  0  0  0  0  0  0  0  0
    5.0393   -0.4901   -1.3464 H   0  0  0  0  0  0  0  0  0  0  0  0
    5.5209    1.0086   -0.4569 H   0  0  0  0  0  0  0  0  0  0  0  0
    5.4503   -1.6514    2.2187 H   0  0  0  0  0  0  0  0  0  0  0  0
    6.5078   -0.4351    1.4321 H   0  0  0  0  0  0  0  0  0  0  0  0
    6.0235   -1.9323    0.5421 H   0  0  0  0  0  0  0  0  0  0  0  0
  1  5  1  0  0  0  0
  1  2  1  0  0  0  0
  1 26  1  0  0  0  0
  1 33  1  0  0  0  0
  2  3  1  0  0  0  0
  2  4  1  0  0  0  0
  3 18  1  0  0  0  0
  3 10  1  0  0  0  0
  3 19  1  0  0  0  0
  4 15  1  0  0  0  0
  4 16  1  0  0  0  0
  4 17  1  0  0  0  0
  5  7  1  0  0  0  0
  5  6  1  0  0  0  0
  6 13  1  0  0  0  0
  6 14  1  0  0  0  0
  6 11  1  0  0  0  0
  7  8  1  0  0  0  0
  7  9  1  0  0  0  0
  7 12  1  0  0  0  0
 20 21  1  0  0  0  0
 20 34  1  0  0  0  0
 20 35  1  0  0  0  0
 20 36  1  0  0  0  0
 21 22  2  0  0  0  0
 22 23  1  0  0  0  0
 22 26  1  0  0  0  0
 23 24  1  0  0  0  0
 23 25  1  0  0  0  0
 24 37  1  0  0  0  0
 24 38  1  0  0  0  0
 24 39  1  0  0  0  0
 25 40  1  0  0  0  0
 25 41  1  0  0  0  0
 25 42  1  0  0  0  0
 27 28  1  0  0  0  0
 27 43  1  0  0  0  0
 27 44  1  0  0  0  0
 27 45  1  0  0  0  0
 28 29  2  0  0  0  0
 29 30  1  0  0  0  0
 29 33  1  0  0  0  0
 30 31  1  0  0  0  0
 30 32  1  0  0  0  0
 31 46  1  0  0  0  0
 31 47  1  0  0  0  0
 31 48  1  0  0  0  0
 32 49  1  0  0  0  0
 32 50  1  0  0  0  0
 32 51  1  0  0  0  0
M  END
>  <fileName>
/Users/dawn_mao/Desktop/PhD_research/chpt4_Ti_ureate/TM_catalyst_framework/src/TM_catalyst_framework/metal_center_template/u1_d2_ON2.sdf

>  <name>
XYZ file generated by Avogadro.

>  <totalCharge>
0

>  <totalSpinMultiplicity>
1

$$$$
