XYZ file generated by Avogadro.
 OpenBabel11102520193D

 51 52  0  0  0  0  0  0  0  0999 V2000
   -0.8425    2.2136    0.6322 Ti  0  0  0  0  0  0  0  0  0  0  0  0
   -0.9056    4.2462    1.2545 N   0  0  0  0  0  0  0  0  0  0  0  0
   -2.1494    4.4849    1.9950 C   0  0  0  0  0  0  0  0  0  0  0  0
    0.1684    5.0611    1.8305 C   0  0  0  0  0  0  0  0  0  0  0  0
   -0.1149    2.8157   -1.2743 N   0  0  0  0  0  0  0  0  0  0  0  0
    1.2370    3.3775   -1.3103 C   0  0  0  0  0  0  0  0  0  0  0  0
   -1.0318    3.7382   -1.9639 C   0  0  0  0  0  0  0  0  0  0  0  0
   -1.9810    3.2305   -2.2130 H   0  0  0  0  0  0  0  0  0  0  0  0
   -1.2343    4.6313   -1.3371 H   0  0  0  0  0  0  0  0  0  0  0  0
   -2.3452    5.5736    2.1096 H   0  0  0  0  0  0  0  0  0  0  0  0
    1.5408    3.5826   -2.3598 H   0  0  0  0  0  0  0  0  0  0  0  0
   -0.6153    4.0662   -2.9415 H   0  0  0  0  0  0  0  0  0  0  0  0
    1.2908    4.3287   -0.7543 H   0  0  0  0  0  0  0  0  0  0  0  0
    1.9716    2.6516   -0.9435 H   0  0  0  0  0  0  0  0  0  0  0  0
    1.1209    4.9272    1.2984 H   0  0  0  0  0  0  0  0  0  0  0  0
   -0.0838    6.1368    1.7105 H   0  0  0  0  0  0  0  0  0  0  0  0
    0.2660    4.8836    2.9226 H   0  0  0  0  0  0  0  0  0  0  0  0
   -3.0099    4.0586    1.4471 H   0  0  0  0  0  0  0  0  0  0  0  0
   -2.0949    4.0123    2.9985 H   0  0  0  0  0  0  0  0  0  0  0  0
   -1.0686   -0.9621   -0.2563 C   0  0  0  0  0  0  0  0  0  0  0  0
   -1.4998    0.4135   -0.1141 N   0  0  0  0  0  4  0  0  0  0  0  0
   -2.6430    0.9690   -0.4655 C   0  0  0  0  0  0  0  0  0  0  0  0
   -3.7836    0.3397   -1.0568 N   0  0  0  0  0  0  0  0  0  0  0  0
   -4.2632   -0.9559   -0.6097 C   0  0  0  0  0  0  0  0  0  0  0  0
   -4.5584    1.0479   -2.0552 C   0  0  0  0  0  0  0  0  0  0  0  0
   -2.5587    2.2913   -0.1413 O   0  0  0  0  0  0  0  0  0  0  0  0
   -1.7905   -1.5686   -0.8285 H   0  0  0  0  0  0  0  0  0  0  0  0
   -0.1318   -0.9964   -0.8474 H   0  0  0  0  0  0  0  0  0  0  0  0
   -0.9412   -1.4240    0.7450 H   0  0  0  0  0  0  0  0  0  0  0  0
   -4.2323   -1.6885   -1.4416 H   0  0  0  0  0  0  0  0  0  0  0  0
   -3.6855   -1.3334    0.2593 H   0  0  0  0  0  0  0  0  0  0  0  0
   -5.3118   -0.8546   -0.2555 H   0  0  0  0  0  0  0  0  0  0  0  0
   -4.5923    0.4429   -2.9875 H   0  0  0  0  0  0  0  0  0  0  0  0
   -4.1012    2.0289   -2.3033 H   0  0  0  0  0  0  0  0  0  0  0  0
   -5.5924    1.2154   -1.6916 H   0  0  0  0  0  0  0  0  0  0  0  0
    1.6452   -0.0169    4.1673 C   0  0  0  0  0  0  0  0  0  0  0  0
    0.3513    0.5040    3.7955 N   0  0  0  0  0  0  0  0  0  0  0  0
    0.0530    1.1632    2.7212 C   0  0  0  0  0  0  0  0  0  0  0  0
    0.8990    1.5617    1.6028 N   0  0  0  0  0  4  0  0  0  0  0  0
    1.5858    0.4437    0.9531 C   0  0  0  0  0  0  0  0  0  0  0  0
    1.9332    2.5230    1.9877 C   0  0  0  0  0  0  0  0  0  0  0  0
   -1.2199    1.5586    2.3991 O   0  0  0  0  0  0  0  0  0  0  0  0
    2.3855    0.7952    4.2877 H   0  0  0  0  0  0  0  0  0  0  0  0
    1.9853   -0.7775    3.4371 H   0  0  0  0  0  0  0  0  0  0  0  0
    1.5506   -0.5297    5.1461 H   0  0  0  0  0  0  0  0  0  0  0  0
    1.8834    0.6929   -0.0805 H   0  0  0  0  0  0  0  0  0  0  0  0
    2.5064    0.1338    1.4913 H   0  0  0  0  0  0  0  0  0  0  0  0
    0.9857   -0.4639    0.9645 H   0  0  0  0  0  0  0  0  0  0  0  0
    2.3984    3.0198    1.1218 H   0  0  0  0  0  0  0  0  0  0  0  0
    1.5579    3.2411    2.7206 H   0  0  0  0  0  0  0  0  0  0  0  0
    2.7634    2.0443    2.5440 H   0  0  0  0  0  0  0  0  0  0  0  0
  1  5  1  0  0  0  0
  1  2  1  0  0  0  0
  1 26  1  0  0  0  0
  1 21  1  0  0  0  0
  1 42  1  0  0  0  0
  1 39  1  0  0  0  0
  2  3  1  0  0  0  0
  2  4  1  0  0  0  0
  3 18  1  0  0  0  0
  3 10  1  0  0  0  0
  3 19  1  0  0  0  0
  4 15  1  0  0  0  0
  4 16  1  0  0  0  0
  4 17  1  0  0  0  0
  5  7  1  0  0  0  0
  5  6  1  0  0  0  0
  6 13  1  0  0  0  0
  6 14  1  0  0  0  0
  6 11  1  0  0  0  0
  7  8  1  0  0  0  0
  7  9  1  0  0  0  0
  7 12  1  0  0  0  0
 20 21  1  0  0  0  0
 20 27  1  0  0  0  0
 20 28  1  0  0  0  0
 20 29  1  0  0  0  0
 21 22  2  0  0  0  0
 22 23  1  0  0  0  0
 22 26  1  0  0  0  0
 23 24  1  0  0  0  0
 23 25  1  0  0  0  0
 24 30  1  0  0  0  0
 24 31  1  0  0  0  0
 24 32  1  0  0  0  0
 25 33  1  0  0  0  0
 25 34  1  0  0  0  0
 25 35  1  0  0  0  0
 36 37  1  0  0  0  0
 36 43  1  0  0  0  0
 36 44  1  0  0  0  0
 36 45  1  0  0  0  0
 37 38  2  0  0  0  0
 38 39  1  0  0  0  0
 38 42  1  0  0  0  0
 39 40  1  0  0  0  0
 39 41  1  0  0  0  0
 40 46  1  0  0  0  0
 40 47  1  0  0  0  0
 40 48  1  0  0  0  0
 41 49  1  0  0  0  0
 41 50  1  0  0  0  0
 41 51  1  0  0  0  0
M  END
>  <fileName>
/Users/dawn_mao/Desktop/PhD_research/chpt4_Ti_ureate/TM_catalyst_framework/src/TM_catalyst_framework/template/u2_d2d2_iso4.sdf

>  <name>
XYZ file generated by Avogadro.

$$$$
