XYZ file generated by Avogadro.
 OpenBabel11132516173D

 51 50  0  0  0  0  0  0  0  0999 V2000
   -0.7896    3.3833    0.9933 Ti  0  0  0  0  0  0  0  0  0  0  0  0
   -0.0805   -0.1359   -0.7130 C   0  0  0  0  0  0  0  0  0  0  0  0
    0.1752    0.3884    0.6440 N   0  0  0  0  0  0  0  0  0  0  0  0
    0.4018    0.8557    1.8499 C   0  0  0  0  0  0  0  0  0  0  0  0
    1.0471   -0.0156    2.7752 N   0  0  0  0  0  0  0  0  0  0  0  0
    0.9549    0.2191    4.1954 C   0  0  0  0  0  0  0  0  0  0  0  0
    1.8140   -1.1529    2.2855 C   0  0  0  0  0  0  0  0  0  0  0  0
    0.1002    2.1794    2.2307 O   0  0  0  0  0  0  0  0  0  0  0  0
    0.8202   -0.1193   -1.3278 H   0  0  0  0  0  0  0  0  0  0  0  0
   -0.3761   -1.1956   -0.7968 H   0  0  0  0  0  0  0  0  0  0  0  0
   -0.6436    0.5577   -1.3280 H   0  0  0  0  0  0  0  0  0  0  0  0
    1.9651    0.3909    4.6105 H   0  0  0  0  0  0  0  0  0  0  0  0
    0.4825   -0.6659    4.6729 H   0  0  0  0  0  0  0  0  0  0  0  0
    0.3241    1.0954    4.4197 H   0  0  0  0  0  0  0  0  0  0  0  0
    2.2625   -1.7299    3.1213 H   0  0  0  0  0  0  0  0  0  0  0  0
    2.6419   -0.7833    1.6397 H   0  0  0  0  0  0  0  0  0  0  0  0
    1.1773   -1.8375    1.6852 H   0  0  0  0  0  0  0  0  0  0  0  0
   -2.4672    1.9345   -2.9257 C   0  0  0  0  0  0  0  0  0  0  0  0
   -2.2740    2.2019   -1.5136 N   0  0  0  0  0  0  0  0  0  0  0  0
   -2.5765    1.5060   -0.4537 C   0  0  0  0  0  0  0  0  0  0  0  0
   -3.2920    0.2410   -0.4600 N   0  0  0  0  0  0  0  0  0  0  0  0
   -3.3454   -0.7163   -1.5598 C   0  0  0  0  0  0  0  0  0  0  0  0
   -3.9399   -0.2028    0.7624 C   0  0  0  0  0  0  0  0  0  0  0  0
   -2.0767    1.9397    0.7388 O   0  0  0  0  0  0  0  0  0  0  0  0
   -1.7858    1.1278   -3.2690 H   0  0  0  0  0  0  0  0  0  0  0  0
   -2.1096    2.8118   -3.5032 H   0  0  0  0  0  0  0  0  0  0  0  0
   -3.5258    1.7282   -3.1768 H   0  0  0  0  0  0  0  0  0  0  0  0
   -2.7052   -0.4852   -2.4094 H   0  0  0  0  0  0  0  0  0  0  0  0
   -2.9622   -1.6991   -1.2041 H   0  0  0  0  0  0  0  0  0  0  0  0
   -4.3895   -0.8549   -1.9063 H   0  0  0  0  0  0  0  0  0  0  0  0
   -3.8669    0.5457    1.5763 H   0  0  0  0  0  0  0  0  0  0  0  0
   -3.4753   -1.1489    1.1152 H   0  0  0  0  0  0  0  0  0  0  0  0
   -5.0180   -0.3825    0.5640 H   0  0  0  0  0  0  0  0  0  0  0  0
   -1.5398    3.9832    2.8315 N   0  0  0  0  0  0  0  0  0  0  0  0
   -0.5749    4.8188    3.5437 C   0  0  0  0  0  0  0  0  0  0  0  0
   -2.1485    2.9676    3.6959 C   0  0  0  0  0  0  0  0  0  0  0  0
   -0.2757    5.6619    2.8875 H   0  0  0  0  0  0  0  0  0  0  0  0
    0.3307    4.2333    3.8062 H   0  0  0  0  0  0  0  0  0  0  0  0
   -1.0294    5.2400    4.4663 H   0  0  0  0  0  0  0  0  0  0  0  0
   -2.8547    3.4587    4.3981 H   0  0  0  0  0  0  0  0  0  0  0  0
   -1.3893    2.4359    4.2960 H   0  0  0  0  0  0  0  0  0  0  0  0
   -2.7224    2.2396    3.0932 H   0  0  0  0  0  0  0  0  0  0  0  0
    0.1206    3.1934   -0.9785 N   0  0  0  0  0  0  0  0  0  0  0  0
    0.8628    4.3964   -0.4459 C   0  0  0  0  0  0  0  0  0  0  0  0
    1.3463    2.3245   -1.1354 C   0  0  0  0  0  0  0  0  0  0  0  0
    0.4255    4.9373    0.4183 H   0  0  0  0  0  0  0  0  0  0  0  0
    1.5505    4.9077   -1.1559 H   0  0  0  0  0  0  0  0  0  0  0  0
    1.5621    4.0737    0.3660 H   0  0  0  0  0  0  0  0  0  0  0  0
    1.3741    1.7851   -2.0920 H   0  0  0  0  0  0  0  0  0  0  0  0
    1.6104    1.8022   -0.2118 H   0  0  0  0  0  0  0  0  0  0  0  0
    2.3520    2.8258   -1.1886 H   0  0  0  0  0  0  0  0  0  0  0  0
  1  8  1  0  0  0  0
  1 24  1  0  0  0  0
  1 34  1  0  0  0  0
  1 43  1  0  0  0  0
  2  3  1  0  0  0  0
  2  9  1  0  0  0  0
  2 10  1  0  0  0  0
  2 11  1  0  0  0  0
  3  4  2  0  0  0  0
  4  5  1  0  0  0  0
  4  8  1  0  0  0  0
  5  6  1  0  0  0  0
  5  7  1  0  0  0  0
  6 12  1  0  0  0  0
  6 13  1  0  0  0  0
  6 14  1  0  0  0  0
  7 15  1  0  0  0  0
  7 16  1  0  0  0  0
  7 17  1  0  0  0  0
 18 19  1  0  0  0  0
 18 25  1  0  0  0  0
 18 26  1  0  0  0  0
 18 27  1  0  0  0  0
 19 20  2  0  0  0  0
 20 21  1  0  0  0  0
 20 24  1  0  0  0  0
 21 22  1  0  0  0  0
 21 23  1  0  0  0  0
 22 28  1  0  0  0  0
 22 29  1  0  0  0  0
 22 30  1  0  0  0  0
 23 31  1  0  0  0  0
 23 32  1  0  0  0  0
 23 33  1  0  0  0  0
 34 35  1  0  0  0  0
 34 36  1  0  0  0  0
 35 37  1  0  0  0  0
 35 38  1  0  0  0  0
 35 39  1  0  0  0  0
 36 40  1  0  0  0  0
 36 41  1  0  0  0  0
 36 42  1  0  0  0  0
 43 44  1  0  0  0  0
 43 45  1  0  0  0  0
 44 46  1  0  0  0  0
 44 47  1  0  0  0  0
 44 48  1  0  0  0  0
 45 49  1  0  0  0  0
 45 50  1  0  0  0  0
 45 51  1  0  0  0  0
M  END
>  <fileName>
/Users/dawn_mao/Desktop/PhD_research/chpt4_Ti_ureate/TM_catalyst_framework/src/TM_catalyst_framework/template/u2_d1.sdf

>  <name>
XYZ file generated by Avogadro.

>  <totalCharge>
0

>  <totalSpinMultiplicity>
1

$$$$
