XYZ file generated by Avogadro.
 OpenBabel11062521573D

 51 51  0  0  0  0  0  0  0  0999 V2000
    0.2769    0.8871   -0.0862 Ti  0  0  0  0  0  0  0  0  0  0  0  0
    1.0375    1.5221    1.7680 N   0  0  0  0  0  0  0  0  0  0  0  0
    0.4840    2.8258    2.1372 C   0  0  0  0  0  0  0  0  0  0  0  0
    0.9161    0.5680    2.8758 C   0  0  0  0  0  0  0  0  0  0  0  0
   -0.4220    0.4392   -2.0215 N   0  0  0  0  0  0  0  0  0  0  0  0
    0.2117   -0.7423   -2.6088 C   0  0  0  0  0  0  0  0  0  0  0  0
   -1.8793    0.3921   -2.1605 C   0  0  0  0  0  0  0  0  0  0  0  0
   -2.3140    1.3430   -1.7918 H   0  0  0  0  0  0  0  0  0  0  0  0
   -2.1628    0.2902   -3.2299 H   0  0  0  0  0  0  0  0  0  0  0  0
    1.0187    3.2343    3.0214 H   0  0  0  0  0  0  0  0  0  0  0  0
   -0.1062   -1.6641   -2.0769 H   0  0  0  0  0  0  0  0  0  0  0  0
   -2.3034   -0.4624   -1.5914 H   0  0  0  0  0  0  0  0  0  0  0  0
   -0.0554   -0.8279   -3.6844 H   0  0  0  0  0  0  0  0  0  0  0  0
    1.3135   -0.6379   -2.5353 H   0  0  0  0  0  0  0  0  0  0  0  0
   -0.1490    0.3984    3.1416 H   0  0  0  0  0  0  0  0  0  0  0  0
    1.3883   -0.3950    2.5944 H   0  0  0  0  0  0  0  0  0  0  0  0
    1.4520    0.9511    3.7704 H   0  0  0  0  0  0  0  0  0  0  0  0
   -0.5968    2.7466    2.3697 H   0  0  0  0  0  0  0  0  0  0  0  0
    0.6182    3.5379    1.2992 H   0  0  0  0  0  0  0  0  0  0  0  0
   -2.4536    1.2101    1.0047 C   0  0  0  0  0  0  0  0  0  0  0  0
   -1.2117    0.5916    0.6188 N   0  0  0  0  0  4  0  0  0  0  0  0
   -0.6861   -0.7891    0.7468 C   0  0  0  0  0  0  0  0  0  0  0  0
   -1.2385   -1.9793    1.2898 N   0  0  0  0  0  0  0  0  0  0  0  0
   -2.5610   -1.9696    1.8804 C   0  0  0  0  0  0  0  0  0  0  0  0
   -0.4450   -3.1906    1.2357 C   0  0  0  0  0  0  0  0  0  0  0  0
    0.6504   -0.4858    0.1139 O   0  0  0  0  0  0  0  0  0  0  0  0
    3.5584    1.2610    0.1243 C   0  0  0  0  0  0  0  0  0  0  0  0
    3.3881    1.8045   -1.1983 N   0  0  0  0  0  0  0  0  0  0  0  0
    2.3071    2.3396   -1.6660 C   0  0  0  0  0  0  0  0  0  0  0  0
    2.3163    2.8967   -2.9907 N   0  0  0  0  0  0  0  0  0  0  0  0
    1.1048    3.4341   -3.5843 C   0  0  0  0  0  0  0  0  0  0  0  0
    3.5265    2.9275   -3.7991 C   0  0  0  0  0  0  0  0  0  0  0  0
    1.1692    2.4127   -0.9236 O   0  0  0  0  0  0  0  0  0  0  0  0
   -3.3002    0.7129    0.4894 H   0  0  0  0  0  0  0  0  0  0  0  0
   -2.4338    2.2825    0.7229 H   0  0  0  0  0  0  0  0  0  0  0  0
   -2.5876    1.1231    2.1023 H   0  0  0  0  0  0  0  0  0  0  0  0
   -2.5829   -1.2609    2.7342 H   0  0  0  0  0  0  0  0  0  0  0  0
   -2.8480   -2.9728    2.2605 H   0  0  0  0  0  0  0  0  0  0  0  0
   -3.3094   -1.6619    1.1210 H   0  0  0  0  0  0  0  0  0  0  0  0
    0.5083   -3.0386    1.7847 H   0  0  0  0  0  0  0  0  0  0  0  0
   -0.2167   -3.4399    0.1775 H   0  0  0  0  0  0  0  0  0  0  0  0
   -0.9755   -4.0541    1.6892 H   0  0  0  0  0  0  0  0  0  0  0  0
    4.6029    0.9049    0.2340 H   0  0  0  0  0  0  0  0  0  0  0  0
    2.8918    0.3962    0.2780 H   0  0  0  0  0  0  0  0  0  0  0  0
    3.3843    2.0512    0.8841 H   0  0  0  0  0  0  0  0  0  0  0  0
    0.2300    3.3569   -2.9070 H   0  0  0  0  0  0  0  0  0  0  0  0
    0.8662    2.8714   -4.5119 H   0  0  0  0  0  0  0  0  0  0  0  0
    1.2555    4.5037   -3.8405 H   0  0  0  0  0  0  0  0  0  0  0  0
    4.4045    2.5007   -3.2732 H   0  0  0  0  0  0  0  0  0  0  0  0
    3.7708    3.9776   -4.0668 H   0  0  0  0  0  0  0  0  0  0  0  0
    3.3710    2.3427   -4.7301 H   0  0  0  0  0  0  0  0  0  0  0  0
  1  5  1  0  0  0  0
  1  2  1  0  0  0  0
  1 26  1  0  0  0  0
  1 21  1  0  0  0  0
  1 33  1  0  0  0  0
  2  3  1  0  0  0  0
  2  4  1  0  0  0  0
  3 18  1  0  0  0  0
  3 10  1  0  0  0  0
  3 19  1  0  0  0  0
  4 15  1  0  0  0  0
  4 16  1  0  0  0  0
  4 17  1  0  0  0  0
  5  7  1  0  0  0  0
  5  6  1  0  0  0  0
  6 13  1  0  0  0  0
  6 14  1  0  0  0  0
  6 11  1  0  0  0  0
  7  8  1  0  0  0  0
  7  9  1  0  0  0  0
  7 12  1  0  0  0  0
 20 21  1  0  0  0  0
 20 34  1  0  0  0  0
 20 35  1  0  0  0  0
 20 36  1  0  0  0  0
 21 22  2  0  0  0  0
 22 23  1  0  0  0  0
 22 26  1  0  0  0  0
 23 24  1  0  0  0  0
 23 25  1  0  0  0  0
 24 37  1  0  0  0  0
 24 38  1  0  0  0  0
 24 39  1  0  0  0  0
 25 40  1  0  0  0  0
 25 41  1  0  0  0  0
 25 42  1  0  0  0  0
 27 28  1  0  0  0  0
 27 43  1  0  0  0  0
 27 44  1  0  0  0  0
 27 45  1  0  0  0  0
 28 29  2  0  0  0  0
 29 30  1  0  0  0  0
 29 33  1  0  0  0  0
 30 31  1  0  0  0  0
 30 32  1  0  0  0  0
 31 46  1  0  0  0  0
 31 47  1  0  0  0  0
 31 48  1  0  0  0  0
 32 49  1  0  0  0  0
 32 50  1  0  0  0  0
 32 51  1  0  0  0  0
M  END
>  <fileName>
/Users/dawn_mao/Desktop/PhD_research/chpt4_Ti_ureate/TM_catalyst_framework/src/TM_catalyst_framework/metal_center_template/u2_d1.sdf

>  <name>
XYZ file generated by Avogadro.

>  <totalCharge>
0

>  <totalSpinMultiplicity>
1

$$$$
