
 OpenBabel11092513133D

 77 80  0  0  0  0  0  0  0  0999 V2000
    0.3059    3.1162    0.9574 Ti  0  0  0  0  0  0  0  0  0  0  0  0
   -0.7489    4.9253    1.5084 N   0  0  0  0  0  0  0  0  0  0  0  0
   -2.1627    4.8075    1.8909 C   0  0  0  0  0  0  0  0  0  0  0  0
   -0.0287    5.9853    2.2245 C   0  0  0  0  0  0  0  0  0  0  0  0
    1.2347    1.3715    0.4808 N   0  0  0  0  0  0  0  0  0  0  0  0
    0.4440    0.1783    0.1843 C   0  0  0  0  0  0  0  0  0  0  0  0
    2.4839    1.4900   -0.2751 C   0  0  0  0  0  0  0  0  0  0  0  0
   -1.4629    2.1483    0.8904 O   0  0  0  0  0  0  0  0  0  0  0  0
    2.4562    2.3764   -0.9226 H   0  0  0  0  0  0  0  0  0  0  0  0
    3.3177    1.6346    0.4155 H   0  0  0  0  0  0  0  0  0  0  0  0
    1.9554    4.0978    0.8458 O   0  0  0  0  0  0  0  0  0  0  0  0
   -2.6064    5.8057    2.0950 H   0  0  0  0  0  0  0  0  0  0  0  0
    1.0922   -0.7219    0.1206 H   0  0  0  0  0  0  0  0  0  0  0  0
    2.7189    0.5771   -0.8647 H   0  0  0  0  0  0  0  0  0  0  0  0
   -0.2698   -0.0063    1.0085 H   0  0  0  0  0  0  0  0  0  0  0  0
   -0.0861    0.2942   -0.7658 H   0  0  0  0  0  0  0  0  0  0  0  0
    0.9826    6.1221    1.7985 H   0  0  0  0  0  0  0  0  0  0  0  0
   -0.5591    6.9528    2.0978 H   0  0  0  0  0  0  0  0  0  0  0  0
    0.0400    5.7854    3.3065 H   0  0  0  0  0  0  0  0  0  0  0  0
   -2.7443    4.3719    1.0584 H   0  0  0  0  0  0  0  0  0  0  0  0
   -2.2994    4.1673    2.7775 H   0  0  0  0  0  0  0  0  0  0  0  0
    1.3915    2.8294    3.1480 N   0  0  0  0  0  0  0  0  0  0  0  0
   -0.5548    3.5632   -1.2828 N   0  0  0  0  0  0  0  0  0  0  0  0
   -1.8053    2.7259   -0.7611 C   0  0  1  0  0  0  0  0  0  0  0  0
    2.4483    3.7978    2.5361 C   0  0  1  0  0  0  0  0  0  0  0  0
   -2.3276    1.7815   -1.7357 N   0  0  0  0  0  2  0  0  0  0  0  0
    3.8159    3.4227    2.8541 N   0  0  0  0  0  2  0  0  0  0  0  0
   -2.5924    0.3853   -1.7071 C   0  0  0  0  0  0  0  0  0  0  0  0
   -2.6604   -0.3853   -0.5364 C   0  0  0  0  0  0  0  0  0  0  0  0
   -2.8567   -1.7705   -0.6229 C   0  0  0  0  0  0  0  0  0  0  0  0
   -2.9959   -2.3887   -1.8709 C   0  0  0  0  0  0  0  0  0  0  0  0
   -2.9524   -1.6226   -3.0349 C   0  0  0  0  0  0  0  0  0  0  0  0
   -2.7569   -0.2462   -2.9529 C   0  0  0  0  0  0  0  0  0  0  0  0
   -2.5538    0.0619    0.4374 H   0  0  0  0  0  0  0  0  0  0  0  0
   -2.8932   -2.3700    0.2768 H   0  0  0  0  0  0  0  0  0  0  0  0
   -3.1370   -3.4595   -1.9381 H   0  0  0  0  0  0  0  0  0  0  0  0
   -3.0586   -2.0947   -4.0050 H   0  0  0  0  0  0  0  0  0  0  0  0
   -2.7067    0.3371   -3.8640 H   0  0  0  0  0  0  0  0  0  0  0  0
    4.9910    3.1485    2.1153 C   0  0  0  0  0  0  0  0  0  0  0  0
    5.1411    3.3969    0.7438 C   0  0  0  0  0  0  0  0  0  0  0  0
    6.3310    3.0232    0.0993 C   0  0  0  0  0  0  0  0  0  0  0  0
    7.3662    2.4143    0.8222 C   0  0  0  0  0  0  0  0  0  0  0  0
    7.2227    2.1854    2.1905 C   0  0  0  0  0  0  0  0  0  0  0  0
    6.0418    2.5540    2.8289 C   0  0  0  0  0  0  0  0  0  0  0  0
    4.3515    3.8563    0.1696 H   0  0  0  0  0  0  0  0  0  0  0  0
    6.4504    3.1955   -0.9600 H   0  0  0  0  0  0  0  0  0  0  0  0
    8.2806    2.1175    0.3246 H   0  0  0  0  0  0  0  0  0  0  0  0
    8.0164    1.7147    2.7556 H   0  0  0  0  0  0  0  0  0  0  0  0
    5.9309    2.3577    3.8906 H   0  0  0  0  0  0  0  0  0  0  0  0
   -0.9092    4.9516   -1.3661 C   0  0  0  0  0  0  0  0  0  0  0  0
   -0.1797    5.7976   -0.8751 O   0  0  0  0  0  0  0  0  0  0  0  0
   -1.9845    5.3544   -2.0803 O   0  0  0  0  0  0  0  0  0  0  0  0
   -2.5726    4.7259   -2.5209 H   0  0  0  0  0  0  0  0  0  0  0  0
    0.0368    3.2109   -2.6258 C   0  0  0  0  0  0  0  0  0  0  0  0
    0.4167    1.7473   -2.9399 C   0  0  0  0  0  0  0  0  0  0  0  0
    1.2479    4.1019   -3.0139 C   0  0  0  0  0  0  0  0  0  0  0  0
   -0.7464    3.4267   -3.3895 H   0  0  0  0  0  0  0  0  0  0  0  0
    0.7017    1.6797   -4.0126 H   0  0  0  0  0  0  0  0  0  0  0  0
   -0.3955    1.0278   -2.8474 H   0  0  0  0  0  0  0  0  0  0  0  0
    1.2765    1.3722   -2.3994 H   0  0  0  0  0  0  0  0  0  0  0  0
    1.5929    3.8525   -4.0411 H   0  0  0  0  0  0  0  0  0  0  0  0
    2.0966    3.9821   -2.3191 H   0  0  0  0  0  0  0  0  0  0  0  0
    0.9781    5.1764   -3.0514 H   0  0  0  0  0  0  0  0  0  0  0  0
    0.6650    3.4903    4.1860 C   0  0  0  0  0  0  0  0  0  0  0  0
   -0.5503    3.5100    4.1566 O   0  0  0  0  0  0  0  0  0  0  0  0
    1.2998    3.9955    5.2688 O   0  0  0  0  0  0  0  0  0  0  0  0
    2.2628    3.9749    5.3546 H   0  0  0  0  0  0  0  0  0  0  0  0
    1.8520    1.5152    3.7283 C   0  0  0  0  0  0  0  0  0  0  0  0
    0.6719    0.6415    4.2204 C   0  0  0  0  0  0  0  0  0  0  0  0
    2.7542    0.5833    2.8894 C   0  0  0  0  0  0  0  0  0  0  0  0
    2.4803    1.7486    4.6192 H   0  0  0  0  0  0  0  0  0  0  0  0
    0.0096    0.3706    3.3739 H   0  0  0  0  0  0  0  0  0  0  0  0
    0.0719    1.1489    5.0016 H   0  0  0  0  0  0  0  0  0  0  0  0
    1.0526   -0.2922    4.6900 H   0  0  0  0  0  0  0  0  0  0  0  0
    2.2191    0.0417    2.1037 H   0  0  0  0  0  0  0  0  0  0  0  0
    3.1345   -0.2270    3.5477 H   0  0  0  0  0  0  0  0  0  0  0  0
    3.6570    1.0484    2.4907 H   0  0  0  0  0  0  0  0  0  0  0  0
  1 11  1  0  0  0  0
  1  8  1  0  0  0  0
  1  5  1  0  0  0  0
  1  2  1  0  0  0  0
  1 22  1  0  0  0  0
  1 23  1  0  0  0  0
  2  3  1  0  0  0  0
  2  4  1  0  0  0  0
  3 20  1  0  0  0  0
  3 12  1  0  0  0  0
  3 21  1  0  0  0  0
  4 17  1  0  0  0  0
  4 18  1  0  0  0  0
  4 19  1  0  0  0  0
  5  7  1  0  0  0  0
  5  6  1  0  0  0  0
  6 15  1  0  0  0  0
  6 16  1  0  0  0  0
  6 13  1  0  0  0  0
  7  9  1  0  0  0  0
  7 10  1  0  0  0  0
  7 14  1  0  0  0  0
  8 24  1  0  0  0  0
 11 25  1  0  0  0  0
 22 25  1  0  0  0  0
 22 64  1  0  0  0  0
 22 68  1  0  0  0  0
 23 24  1  0  0  0  0
 23 50  1  0  0  0  0
 23 54  1  0  0  0  0
 24 26  1  6  0  0  0
 25 27  1  6  0  0  0
 26 28  1  0  0  0  0
 27 39  1  0  0  0  0
 28 29  1  0  0  0  0
 28 33  2  0  0  0  0
 29 30  2  0  0  0  0
 29 34  1  0  0  0  0
 30 31  1  0  0  0  0
 30 35  1  0  0  0  0
 31 32  2  0  0  0  0
 31 36  1  0  0  0  0
 32 33  1  0  0  0  0
 32 37  1  0  0  0  0
 33 38  1  0  0  0  0
 39 40  1  0  0  0  0
 39 44  2  0  0  0  0
 40 41  2  0  0  0  0
 40 45  1  0  0  0  0
 41 42  1  0  0  0  0
 41 46  1  0  0  0  0
 42 43  2  0  0  0  0
 42 47  1  0  0  0  0
 43 44  1  0  0  0  0
 43 48  1  0  0  0  0
 44 49  1  0  0  0  0
 50 51  2  0  0  0  0
 50 52  1  0  0  0  0
 52 53  1  0  0  0  0
 54 55  1  0  0  0  0
 54 56  1  0  0  0  0
 54 57  1  0  0  0  0
 55 58  1  0  0  0  0
 55 59  1  0  0  0  0
 55 60  1  0  0  0  0
 56 61  1  0  0  0  0
 56 62  1  0  0  0  0
 56 63  1  0  0  0  0
 64 65  2  0  0  0  0
 64 66  1  0  0  0  0
 66 67  1  0  0  0  0
 68 69  1  0  0  0  0
 68 70  1  0  0  0  0
 68 71  1  0  0  0  0
 69 72  1  0  0  0  0
 69 73  1  0  0  0  0
 69 74  1  0  0  0  0
 70 75  1  0  0  0  0
 70 76  1  0  0  0  0
 70 77  1  0  0  0  0
M  END
>  <fileName>
/Users/dawn_mao/Desktop/PhD_research/chpt4_Ti_ureate/TM_catalyst_framework/src/TM_catalyst_framework/metal_center_template/u2_d2d2_iso1.sdf

$$$$
