XYZ file generated by Avogadro.
 OpenBabel11102521553D

 51 51  0  0  0  0  0  0  0  0999 V2000
   -0.3766    2.2351    0.9924 Ti  0  0  0  0  0  0  0  0  0  0  0  0
   -0.2813    4.2242    1.7810 N   0  0  0  0  0  0  0  0  0  0  0  0
   -1.5345    4.8718    2.1971 C   0  0  0  0  0  0  0  0  0  0  0  0
    0.8490    4.5811    2.6442 C   0  0  0  0  0  0  0  0  0  0  0  0
   -0.9688    2.6148   -0.9685 N   0  0  0  0  0  0  0  0  0  0  0  0
   -0.4329    3.9127   -1.3804 C   0  0  0  0  0  0  0  0  0  0  0  0
   -2.4190    2.5677   -1.1758 C   0  0  0  0  0  0  0  0  0  0  0  0
   -2.8030    1.5738   -0.8685 H   0  0  0  0  0  0  0  0  0  0  0  0
   -2.9295    3.3551   -0.5807 H   0  0  0  0  0  0  0  0  0  0  0  0
   -1.3937    5.9706    2.2812 H   0  0  0  0  0  0  0  0  0  0  0  0
   -0.5771    4.0596   -2.4721 H   0  0  0  0  0  0  0  0  0  0  0  0
   -2.6566    2.7119   -2.2518 H   0  0  0  0  0  0  0  0  0  0  0  0
   -0.9223    4.7393   -0.8239 H   0  0  0  0  0  0  0  0  0  0  0  0
    0.6531    3.9509   -1.1642 H   0  0  0  0  0  0  0  0  0  0  0  0
    1.7831    4.1597    2.2216 H   0  0  0  0  0  0  0  0  0  0  0  0
    0.9613    5.6859    2.6910 H   0  0  0  0  0  0  0  0  0  0  0  0
    0.6929    4.1955    3.6742 H   0  0  0  0  0  0  0  0  0  0  0  0
   -2.3196    4.6975    1.4337 H   0  0  0  0  0  0  0  0  0  0  0  0
   -1.8782    4.4803    3.1773 H   0  0  0  0  0  0  0  0  0  0  0  0
    1.2193    1.2753    3.2683 C   0  0  0  0  0  0  0  0  0  0  0  0
    0.1462    1.9165    2.5517 N   0  0  0  0  0  4  0  0  0  0  0  0
   -1.3064    1.9080    2.8538 C   0  0  0  0  0  0  0  0  0  0  0  0
   -2.0420    1.4646    3.9904 N   0  0  0  0  0  0  0  0  0  0  0  0
   -1.3670    1.0811    5.2123 C   0  0  0  0  0  0  0  0  0  0  0  0
   -3.4850    1.3672    3.9125 C   0  0  0  0  0  0  0  0  0  0  0  0
   -1.7405    2.2354    1.4452 O   0  0  0  0  0  0  0  0  0  0  0  0
    2.1902    1.6051    2.8469 H   0  0  0  0  0  0  0  0  0  0  0  0
    1.1979    1.5685    4.3362 H   0  0  0  0  0  0  0  0  0  0  0  0
    1.1332    0.1743    3.1676 H   0  0  0  0  0  0  0  0  0  0  0  0
   -0.7964    1.9444    5.6138 H   0  0  0  0  0  0  0  0  0  0  0  0
   -0.6833    0.2293    5.0159 H   0  0  0  0  0  0  0  0  0  0  0  0
   -2.0955    0.7561    5.9865 H   0  0  0  0  0  0  0  0  0  0  0  0
   -3.8610    1.6832    2.9158 H   0  0  0  0  0  0  0  0  0  0  0  0
   -3.9486    2.0137    4.6865 H   0  0  0  0  0  0  0  0  0  0  0  0
   -3.7953    0.3137    4.0821 H   0  0  0  0  0  0  0  0  0  0  0  0
    2.2969    1.5662   -0.3853 C   0  0  0  0  0  0  0  0  0  0  0  0
    2.0371    0.1633   -0.1866 N   0  0  0  0  0  0  0  0  0  0  0  0
    0.8759   -0.3372    0.0773 C   0  0  0  0  0  0  0  0  0  0  0  0
    0.7166   -1.7552    0.1849 N   0  0  0  0  0  0  0  0  0  0  0  0
    1.8080   -2.6504   -0.1594 C   0  0  0  0  0  0  0  0  0  0  0  0
   -0.5521   -2.2863    0.6560 C   0  0  0  0  0  0  0  0  0  0  0  0
   -0.2202    0.4413    0.2423 O   0  0  0  0  0  0  0  0  0  0  0  0
    1.7407    1.9201   -1.2757 H   0  0  0  0  0  0  0  0  0  0  0  0
    2.0148    2.1523    0.5100 H   0  0  0  0  0  0  0  0  0  0  0  0
    3.3806    1.7072   -0.5764 H   0  0  0  0  0  0  0  0  0  0  0  0
    2.6903   -2.4369    0.4790 H   0  0  0  0  0  0  0  0  0  0  0  0
    2.0811   -2.5070   -1.2266 H   0  0  0  0  0  0  0  0  0  0  0  0
    1.5276   -3.7159   -0.0195 H   0  0  0  0  0  0  0  0  0  0  0  0
   -1.3729   -1.9682   -0.0208 H   0  0  0  0  0  0  0  0  0  0  0  0
   -0.7565   -1.9013    1.6791 H   0  0  0  0  0  0  0  0  0  0  0  0
   -0.5495   -3.3952    0.7035 H   0  0  0  0  0  0  0  0  0  0  0  0
  1  5  1  0  0  0  0
  1  2  1  0  0  0  0
  1 26  1  0  0  0  0
  1 21  1  0  0  0  0
  1 42  1  0  0  0  0
  2  3  1  0  0  0  0
  2  4  1  0  0  0  0
  3 18  1  0  0  0  0
  3 10  1  0  0  0  0
  3 19  1  0  0  0  0
  4 15  1  0  0  0  0
  4 16  1  0  0  0  0
  4 17  1  0  0  0  0
  5  7  1  0  0  0  0
  5  6  1  0  0  0  0
  6 13  1  0  0  0  0
  6 14  1  0  0  0  0
  6 11  1  0  0  0  0
  7  8  1  0  0  0  0
  7  9  1  0  0  0  0
  7 12  1  0  0  0  0
 20 21  1  0  0  0  0
 20 27  1  0  0  0  0
 20 28  1  0  0  0  0
 20 29  1  0  0  0  0
 21 22  2  0  0  0  0
 22 23  1  0  0  0  0
 22 26  1  0  0  0  0
 23 24  1  0  0  0  0
 23 25  1  0  0  0  0
 24 30  1  0  0  0  0
 24 31  1  0  0  0  0
 24 32  1  0  0  0  0
 25 33  1  0  0  0  0
 25 34  1  0  0  0  0
 25 35  1  0  0  0  0
 36 37  1  0  0  0  0
 36 43  1  0  0  0  0
 36 44  1  0  0  0  0
 36 45  1  0  0  0  0
 37 38  2  0  0  0  0
 38 39  1  0  0  0  0
 38 42  1  0  0  0  0
 39 40  1  0  0  0  0
 39 41  1  0  0  0  0
 40 46  1  0  0  0  0
 40 47  1  0  0  0  0
 40 48  1  0  0  0  0
 41 49  1  0  0  0  0
 41 50  1  0  0  0  0
 41 51  1  0  0  0  0
M  END
$$$$
