XYZ file generated by Avogadro.
 OpenBabel11102520403D

 51 51  0  0  0  0  0  0  0  0999 V2000
   -0.2968    2.7555    0.4743 Ti  0  0  0  0  0  0  0  0  0  0  0  0
   -0.4144    3.2915    2.5045 N   0  0  0  0  0  0  0  0  0  0  0  0
   -1.6082    4.0482    2.9036 C   0  0  0  0  0  0  0  0  0  0  0  0
    0.7951    4.0397    2.8552 C   0  0  0  0  0  0  0  0  0  0  0  0
    0.1056    2.3018   -1.5398 N   0  0  0  0  0  0  0  0  0  0  0  0
    1.1362    3.2230   -2.0252 C   0  0  0  0  0  0  0  0  0  0  0  0
   -1.0307    2.2874   -2.4683 C   0  0  0  0  0  0  0  0  0  0  0  0
   -1.5000    3.2910   -2.5459 H   0  0  0  0  0  0  0  0  0  0  0  0
   -0.6908    1.9789   -3.4803 H   0  0  0  0  0  0  0  0  0  0  0  0
   -1.6534    5.0288    2.3821 H   0  0  0  0  0  0  0  0  0  0  0  0
    1.5326    2.8809   -3.0052 H   0  0  0  0  0  0  0  0  0  0  0  0
   -1.7780    1.5423   -2.1421 H   0  0  0  0  0  0  0  0  0  0  0  0
    0.7326    4.2530   -2.1256 H   0  0  0  0  0  0  0  0  0  0  0  0
    1.9700    3.2569   -1.2976 H   0  0  0  0  0  0  0  0  0  0  0  0
    1.6900    3.4279    2.6264 H   0  0  0  0  0  0  0  0  0  0  0  0
    0.8537    4.9818    2.2691 H   0  0  0  0  0  0  0  0  0  0  0  0
    0.8122    4.2731    3.9418 H   0  0  0  0  0  0  0  0  0  0  0  0
   -2.5206    3.4616    2.6781 H   0  0  0  0  0  0  0  0  0  0  0  0
   -1.5978    4.2300    3.9999 H   0  0  0  0  0  0  0  0  0  0  0  0
   -2.8864    1.3280    0.4224 C   0  0  0  0  0  0  0  0  0  0  0  0
   -1.9262    2.3970    0.3253 N   0  0  0  0  0  4  0  0  0  0  0  0
   -2.0365    3.8345   -0.0212 C   0  0  0  0  0  0  0  0  0  0  0  0
   -3.1564    4.6330   -0.3842 N   0  0  0  0  0  0  0  0  0  0  0  0
   -2.9685    6.0261   -0.7267 C   0  0  0  0  0  0  0  0  0  0  0  0
   -4.4824    4.0528   -0.4258 C   0  0  0  0  0  0  0  0  0  0  0  0
   -0.5606    4.1252    0.1274 O   0  0  0  0  0  0  0  0  0  0  0  0
   -2.3666    0.3833    0.6591 H   0  0  0  0  0  0  0  0  0  0  0  0
   -3.4158    1.1985   -0.5417 H   0  0  0  0  0  0  0  0  0  0  0  0
   -3.6229    1.5567    1.2195 H   0  0  0  0  0  0  0  0  0  0  0  0
   -3.3106    6.2014   -1.7690 H   0  0  0  0  0  0  0  0  0  0  0  0
   -1.8994    6.3197   -0.6549 H   0  0  0  0  0  0  0  0  0  0  0  0
   -3.5587    6.6643   -0.0362 H   0  0  0  0  0  0  0  0  0  0  0  0
   -4.7570    3.6689    0.5791 H   0  0  0  0  0  0  0  0  0  0  0  0
   -5.2405    4.8066   -0.7290 H   0  0  0  0  0  0  0  0  0  0  0  0
   -4.5088    3.2237   -1.1630 H   0  0  0  0  0  0  0  0  0  0  0  0
   -0.2675   -0.2281    2.5412 C   0  0  0  0  0  0  0  0  0  0  0  0
    0.4506   -0.5536    1.3281 N   0  0  0  0  0  0  0  0  0  0  0  0
    1.1499    0.2714    0.6172 C   0  0  0  0  0  0  0  0  0  0  0  0
    1.8778   -0.2170   -0.5186 N   0  0  0  0  0  0  0  0  0  0  0  0
    1.5463   -1.4872   -1.1424 C   0  0  0  0  0  0  0  0  0  0  0  0
    2.9814    0.5402   -1.0793 C   0  0  0  0  0  0  0  0  0  0  0  0
    1.2130    1.5888    0.9371 O   0  0  0  0  0  0  0  0  0  0  0  0
   -1.3361   -0.4937    2.4312 H   0  0  0  0  0  0  0  0  0  0  0  0
    0.1468   -0.8340    3.3731 H   0  0  0  0  0  0  0  0  0  0  0  0
   -0.1742    0.8363    2.8171 H   0  0  0  0  0  0  0  0  0  0  0  0
    1.2826   -1.3135   -2.2083 H   0  0  0  0  0  0  0  0  0  0  0  0
    2.4156   -2.1745   -1.0916 H   0  0  0  0  0  0  0  0  0  0  0  0
    0.6751   -1.9790   -0.6625 H   0  0  0  0  0  0  0  0  0  0  0  0
    3.1884    1.4639   -0.5019 H   0  0  0  0  0  0  0  0  0  0  0  0
    2.7649    0.8060   -2.1344 H   0  0  0  0  0  0  0  0  0  0  0  0
    3.9045   -0.0769   -1.0479 H   0  0  0  0  0  0  0  0  0  0  0  0
  1  5  1  0  0  0  0
  1  2  1  0  0  0  0
  1 26  1  0  0  0  0
  1 21  1  0  0  0  0
  1 42  1  0  0  0  0
  2  3  1  0  0  0  0
  2  4  1  0  0  0  0
  3 18  1  0  0  0  0
  3 10  1  0  0  0  0
  3 19  1  0  0  0  0
  4 15  1  0  0  0  0
  4 16  1  0  0  0  0
  4 17  1  0  0  0  0
  5  7  1  0  0  0  0
  5  6  1  0  0  0  0
  6 13  1  0  0  0  0
  6 14  1  0  0  0  0
  6 11  1  0  0  0  0
  7  8  1  0  0  0  0
  7  9  1  0  0  0  0
  7 12  1  0  0  0  0
 20 21  1  0  0  0  0
 20 27  1  0  0  0  0
 20 28  1  0  0  0  0
 20 29  1  0  0  0  0
 21 22  2  0  0  0  0
 22 23  1  0  0  0  0
 22 26  1  0  0  0  0
 23 24  1  0  0  0  0
 23 25  1  0  0  0  0
 24 30  1  0  0  0  0
 24 31  1  0  0  0  0
 24 32  1  0  0  0  0
 25 33  1  0  0  0  0
 25 34  1  0  0  0  0
 25 35  1  0  0  0  0
 36 37  1  0  0  0  0
 36 43  1  0  0  0  0
 36 44  1  0  0  0  0
 36 45  1  0  0  0  0
 37 38  2  0  0  0  0
 38 39  1  0  0  0  0
 38 42  1  0  0  0  0
 39 40  1  0  0  0  0
 39 41  1  0  0  0  0
 40 46  1  0  0  0  0
 40 47  1  0  0  0  0
 40 48  1  0  0  0  0
 41 49  1  0  0  0  0
 41 50  1  0  0  0  0
 41 51  1  0  0  0  0
M  END
>  <fileName>
/Users/dawn_mao/Desktop/PhD_research/chpt4_Ti_ureate/TM_catalyst_framework/src/TM_catalyst_framework/metal_center_template/u2_d1.sdf

>  <name>
XYZ file generated by Avogadro.

>  <totalCharge>
0

>  <totalSpinMultiplicity>
1

$$$$
