XYZ file generated by Avogadro.
 OpenBabel11102501473D

 51 51  0  0  0  0  0  0  0  0999 V2000
    1.0520   -0.3740    0.1822 Ti  0  0  0  0  0  0  0  0  0  0  0  0
   -0.4779    1.0730    0.2943 N   0  0  0  0  0  0  0  0  0  0  0  0
   -1.5047    0.8702    1.3199 C   0  0  0  0  0  0  0  0  0  0  0  0
   -1.1235    1.1504   -1.0207 C   0  0  0  0  0  0  0  0  0  0  0  0
   -0.0949   -2.1356    0.5911 N   0  0  0  0  0  0  0  0  0  0  0  0
   -0.4252   -2.6762   -0.7319 C   0  0  0  0  0  0  0  0  0  0  0  0
    0.3731   -3.2518    1.4456 C   0  0  0  0  0  0  0  0  0  0  0  0
    0.1906   -3.0515    2.5132 H   0  0  0  0  0  0  0  0  0  0  0  0
   -0.2319   -4.1689    1.2701 H   0  0  0  0  0  0  0  0  0  0  0  0
   -2.3412    1.5916    1.1897 H   0  0  0  0  0  0  0  0  0  0  0  0
   -1.2412   -3.4280   -0.6616 H   0  0  0  0  0  0  0  0  0  0  0  0
    1.4317   -3.5116    1.2601 H   0  0  0  0  0  0  0  0  0  0  0  0
   -0.7657   -1.8600   -1.3944 H   0  0  0  0  0  0  0  0  0  0  0  0
    0.4718   -3.1420   -1.1960 H   0  0  0  0  0  0  0  0  0  0  0  0
   -1.8231    2.0135   -1.0599 H   0  0  0  0  0  0  0  0  0  0  0  0
   -0.3640    1.3003   -1.8123 H   0  0  0  0  0  0  0  0  0  0  0  0
   -1.6837    0.2188   -1.2402 H   0  0  0  0  0  0  0  0  0  0  0  0
   -1.0907    1.1009    2.3178 H   0  0  0  0  0  0  0  0  0  0  0  0
   -1.9127   -0.1614    1.2699 H   0  0  0  0  0  0  0  0  0  0  0  0
    2.8006   -0.4373   -2.8757 C   0  0  0  0  0  0  0  0  0  0  0  0
    3.6131    0.4288   -2.0500 N   0  0  0  0  0  0  0  0  0  0  0  0
    3.1634    1.2069   -1.1196 C   0  0  0  0  0  0  0  0  0  0  0  0
    4.0526    2.1447   -0.4950 N   0  0  0  0  0  0  0  0  0  0  0  0
    3.5483    3.3674    0.1078 C   0  0  0  0  0  0  0  0  0  0  0  0
    5.4859    1.9145   -0.4573 C   0  0  0  0  0  0  0  0  0  0  0  0
    1.8555    1.1809   -0.7556 O   0  0  0  0  0  0  0  0  0  0  0  0
    2.0799    0.1738   -3.4595 H   0  0  0  0  0  0  0  0  0  0  0  0
    2.2456   -1.1862   -2.2921 H   0  0  0  0  0  0  0  0  0  0  0  0
    3.4612   -0.9729   -3.5882 H   0  0  0  0  0  0  0  0  0  0  0  0
    4.0187    4.2434   -0.3865 H   0  0  0  0  0  0  0  0  0  0  0  0
    3.7973    3.3992    1.1890 H   0  0  0  0  0  0  0  0  0  0  0  0
    2.4508    3.4718   -0.0192 H   0  0  0  0  0  0  0  0  0  0  0  0
    5.7669    0.9469   -0.9223 H   0  0  0  0  0  0  0  0  0  0  0  0
    5.8214    1.8820    0.6025 H   0  0  0  0  0  0  0  0  0  0  0  0
    6.0184    2.7346   -0.9808 H   0  0  0  0  0  0  0  0  0  0  0  0
    4.2188   -1.2502    3.2635 C   0  0  0  0  0  0  0  0  0  0  0  0
    3.7570   -1.6748    1.9675 N   0  0  0  0  0  0  0  0  0  0  0  0
    2.6757   -1.2512    1.4103 C   0  0  0  0  0  0  0  0  0  0  0  0
    1.5566   -0.1343    1.8111 N   0  0  0  0  0  4  0  0  0  0  0  0
    2.1211    1.1920    2.0681 C   0  0  0  0  0  0  0  0  0  0  0  0
    0.7772   -0.5908    2.9735 C   0  0  0  0  0  0  0  0  0  0  0  0
    2.1640   -1.4603   -0.0085 O   0  0  0  0  0  0  0  0  0  0  0  0
    4.4136   -0.1581    3.2633 H   0  0  0  0  0  0  0  0  0  0  0  0
    5.1755   -1.7671    3.4844 H   0  0  0  0  0  0  0  0  0  0  0  0
    3.4839   -1.5113    4.0488 H   0  0  0  0  0  0  0  0  0  0  0  0
    1.5858    1.9577    1.4839 H   0  0  0  0  0  0  0  0  0  0  0  0
    2.0698    1.5281    3.1249 H   0  0  0  0  0  0  0  0  0  0  0  0
    3.1989    1.2063    1.8166 H   0  0  0  0  0  0  0  0  0  0  0  0
   -0.2398   -0.8923    2.6933 H   0  0  0  0  0  0  0  0  0  0  0  0
    0.6447    0.1670    3.7740 H   0  0  0  0  0  0  0  0  0  0  0  0
    1.2673   -1.4476    3.4760 H   0  0  0  0  0  0  0  0  0  0  0  0
  1  5  1  0  0  0  0
  1  2  1  0  0  0  0
  1 26  1  0  0  0  0
  1 42  1  0  0  0  0
  1 39  1  0  0  0  0
  2  3  1  0  0  0  0
  2  4  1  0  0  0  0
  3 18  1  0  0  0  0
  3 10  1  0  0  0  0
  3 19  1  0  0  0  0
  4 15  1  0  0  0  0
  4 16  1  0  0  0  0
  4 17  1  0  0  0  0
  5  7  1  0  0  0  0
  5  6  1  0  0  0  0
  6 13  1  0  0  0  0
  6 14  1  0  0  0  0
  6 11  1  0  0  0  0
  7  8  1  0  0  0  0
  7  9  1  0  0  0  0
  7 12  1  0  0  0  0
 20 21  1  0  0  0  0
 20 27  1  0  0  0  0
 20 28  1  0  0  0  0
 20 29  1  0  0  0  0
 21 22  2  0  0  0  0
 22 23  1  0  0  0  0
 22 26  1  0  0  0  0
 23 24  1  0  0  0  0
 23 25  1  0  0  0  0
 24 30  1  0  0  0  0
 24 31  1  0  0  0  0
 24 32  1  0  0  0  0
 25 33  1  0  0  0  0
 25 34  1  0  0  0  0
 25 35  1  0  0  0  0
 36 37  1  0  0  0  0
 36 43  1  0  0  0  0
 36 44  1  0  0  0  0
 36 45  1  0  0  0  0
 37 38  2  0  0  0  0
 38 39  1  0  0  0  0
 38 42  1  0  0  0  0
 39 40  1  0  0  0  0
 39 41  1  0  0  0  0
 40 46  1  0  0  0  0
 40 47  1  0  0  0  0
 40 48  1  0  0  0  0
 41 49  1  0  0  0  0
 41 50  1  0  0  0  0
 41 51  1  0  0  0  0
M  END
>  <fileName>
/Users/dawn_mao/Desktop/PhD_research/chpt4_Ti_ureate/TM_catalyst_framework/src/TM_catalyst_framework/metal_center_template/u2_d1_d2_ON1.sdf

>  <name>
XYZ file generated by Avogadro.

>  <totalCharge>
0

>  <totalSpinMultiplicity>
1

$$$$
