XYZ file generated by Avogadro.
 OpenBabel11102521573D

 51 51  0  0  0  0  0  0  0  0999 V2000
   -0.6246    2.3175    0.9459 Ti  0  0  0  0  0  0  0  0  0  0  0  0
   -0.7095    4.2887    1.7241 N   0  0  0  0  0  0  0  0  0  0  0  0
   -1.9949    4.8541    2.1502 C   0  0  0  0  0  0  0  0  0  0  0  0
    0.3983    4.6623    2.6048 C   0  0  0  0  0  0  0  0  0  0  0  0
   -0.8764    2.7573   -1.0878 N   0  0  0  0  0  0  0  0  0  0  0  0
    0.4327    3.2195   -1.5733 C   0  0  0  0  0  0  0  0  0  0  0  0
   -1.8323    3.8456   -1.3453 C   0  0  0  0  0  0  0  0  0  0  0  0
   -2.8553    3.5655   -1.0662 H   0  0  0  0  0  0  0  0  0  0  0  0
   -1.5502    4.7678   -0.7952 H   0  0  0  0  0  0  0  0  0  0  0  0
   -1.9078    5.9573    2.2578 H   0  0  0  0  0  0  0  0  0  0  0  0
    0.4160    3.3511   -2.6766 H   0  0  0  0  0  0  0  0  0  0  0  0
   -1.8675    4.0731   -2.4337 H   0  0  0  0  0  0  0  0  0  0  0  0
    0.7240    4.1739   -1.0816 H   0  0  0  0  0  0  0  0  0  0  0  0
    1.2256    2.4951   -1.3367 H   0  0  0  0  0  0  0  0  0  0  0  0
    1.3483    4.2849    2.1744 H   0  0  0  0  0  0  0  0  0  0  0  0
    0.4726    5.7691    2.6791 H   0  0  0  0  0  0  0  0  0  0  0  0
    0.2538    4.2319    3.6178 H   0  0  0  0  0  0  0  0  0  0  0  0
   -2.7658    4.6668    1.3763 H   0  0  0  0  0  0  0  0  0  0  0  0
   -2.3190    4.4204    3.1178 H   0  0  0  0  0  0  0  0  0  0  0  0
   -3.4997    1.7568    0.5862 C   0  0  0  0  0  0  0  0  0  0  0  0
   -2.2674    2.1370    1.2374 N   0  0  0  0  0  4  0  0  0  0  0  0
   -1.8114    1.8190    2.6169 C   0  0  0  0  0  0  0  0  0  0  0  0
   -2.4425    1.2586    3.7673 N   0  0  0  0  0  0  0  0  0  0  0  0
   -1.6002    0.9910    4.9178 C   0  0  0  0  0  0  0  0  0  0  0  0
   -3.8538    0.9302    3.7968 C   0  0  0  0  0  0  0  0  0  0  0  0
   -0.3449    2.0283    2.3299 O   0  0  0  0  0  0  0  0  0  0  0  0
   -4.0166    0.9509    1.1232 H   0  0  0  0  0  0  0  0  0  0  0  0
   -4.1773    2.6331    0.5246 H   0  0  0  0  0  0  0  0  0  0  0  0
   -3.2760    1.3717   -0.4293 H   0  0  0  0  0  0  0  0  0  0  0  0
   -1.1486    1.9375    5.2826 H   0  0  0  0  0  0  0  0  0  0  0  0
   -0.7867    0.2909    4.6276 H   0  0  0  0  0  0  0  0  0  0  0  0
   -2.1661    0.5267    5.7524 H   0  0  0  0  0  0  0  0  0  0  0  0
   -4.4602    1.8321    3.5738 H   0  0  0  0  0  0  0  0  0  0  0  0
   -4.1621    0.5411    4.7900 H   0  0  0  0  0  0  0  0  0  0  0  0
   -4.0669    0.1194    3.0740 H   0  0  0  0  0  0  0  0  0  0  0  0
    2.2276    0.8158    1.4582 C   0  0  0  0  0  0  0  0  0  0  0  0
    2.0494    0.3056    0.1216 N   0  0  0  0  0  0  0  0  0  0  0  0
    0.9065    0.1848   -0.4704 C   0  0  0  0  0  0  0  0  0  0  0  0
    0.8424   -0.3650   -1.7901 N   0  0  0  0  0  0  0  0  0  0  0  0
    2.0576   -0.5436   -2.5615 C   0  0  0  0  0  0  0  0  0  0  0  0
   -0.4342   -0.7017   -2.3991 C   0  0  0  0  0  0  0  0  0  0  0  0
   -0.2428    0.5798    0.1230 O   0  0  0  0  0  0  0  0  0  0  0  0
    3.2957    0.7211    1.7416 H   0  0  0  0  0  0  0  0  0  0  0  0
    1.6251    0.2187    2.1784 H   0  0  0  0  0  0  0  0  0  0  0  0
    1.9515    1.8868    1.4983 H   0  0  0  0  0  0  0  0  0  0  0  0
    2.7436   -1.2412   -2.0390 H   0  0  0  0  0  0  0  0  0  0  0  0
    2.5585    0.4409   -2.6892 H   0  0  0  0  0  0  0  0  0  0  0  0
    1.8353   -0.9489   -3.5721 H   0  0  0  0  0  0  0  0  0  0  0  0
   -1.2894   -0.5345   -1.7113 H   0  0  0  0  0  0  0  0  0  0  0  0
   -0.4374   -1.7758   -2.6811 H   0  0  0  0  0  0  0  0  0  0  0  0
   -0.5936   -0.0836   -3.3071 H   0  0  0  0  0  0  0  0  0  0  0  0
  1  5  1  0  0  0  0
  1  2  1  0  0  0  0
  1 26  1  0  0  0  0
  1 21  1  0  0  0  0
  1 42  1  0  0  0  0
  2  3  1  0  0  0  0
  2  4  1  0  0  0  0
  3 18  1  0  0  0  0
  3 10  1  0  0  0  0
  3 19  1  0  0  0  0
  4 15  1  0  0  0  0
  4 16  1  0  0  0  0
  4 17  1  0  0  0  0
  5  7  1  0  0  0  0
  5  6  1  0  0  0  0
  6 13  1  0  0  0  0
  6 14  1  0  0  0  0
  6 11  1  0  0  0  0
  7  8  1  0  0  0  0
  7  9  1  0  0  0  0
  7 12  1  0  0  0  0
 20 21  1  0  0  0  0
 20 27  1  0  0  0  0
 20 28  1  0  0  0  0
 20 29  1  0  0  0  0
 21 22  2  0  0  0  0
 22 23  1  0  0  0  0
 22 26  1  0  0  0  0
 23 24  1  0  0  0  0
 23 25  1  0  0  0  0
 24 30  1  0  0  0  0
 24 31  1  0  0  0  0
 24 32  1  0  0  0  0
 25 33  1  0  0  0  0
 25 34  1  0  0  0  0
 25 35  1  0  0  0  0
 36 37  1  0  0  0  0
 36 43  1  0  0  0  0
 36 44  1  0  0  0  0
 36 45  1  0  0  0  0
 37 38  2  0  0  0  0
 38 39  1  0  0  0  0
 38 42  1  0  0  0  0
 39 40  1  0  0  0  0
 39 41  1  0  0  0  0
 40 46  1  0  0  0  0
 40 47  1  0  0  0  0
 40 48  1  0  0  0  0
 41 49  1  0  0  0  0
 41 50  1  0  0  0  0
 41 51  1  0  0  0  0
M  END
$$$$
