XYZ file generated by Avogadro.
 OpenBabel11102520183D

 51 52  0  0  0  0  0  0  0  0999 V2000
    0.5379    3.1387    0.6926 Ti  0  0  0  0  0  0  0  0  0  0  0  0
   -0.4519    4.9166    1.3436 N   0  0  0  0  0  0  0  0  0  0  0  0
   -1.8807    5.0133    1.0085 C   0  0  0  0  0  0  0  0  0  0  0  0
   -0.2902    5.1535    2.7862 C   0  0  0  0  0  0  0  0  0  0  0  0
    1.4873    1.3169    0.1272 N   0  0  0  0  0  0  0  0  0  0  0  0
    1.9881    0.5846    1.2979 C   0  0  0  0  0  0  0  0  0  0  0  0
    0.6931    0.4034   -0.7059 C   0  0  0  0  0  0  0  0  0  0  0  0
   -0.2007    0.0371   -0.1562 H   0  0  0  0  0  0  0  0  0  0  0  0
    0.3957    0.8977   -1.6493 H   0  0  0  0  0  0  0  0  0  0  0  0
   -2.2909    5.9954    1.3301 H   0  0  0  0  0  0  0  0  0  0  0  0
    2.4270   -0.3942    1.0061 H   0  0  0  0  0  0  0  0  0  0  0  0
    1.3024   -0.4767   -1.0040 H   0  0  0  0  0  0  0  0  0  0  0  0
    2.8143    1.1445    1.7753 H   0  0  0  0  0  0  0  0  0  0  0  0
    1.1688    0.4239    2.0303 H   0  0  0  0  0  0  0  0  0  0  0  0
    0.7753    5.3123    3.0384 H   0  0  0  0  0  0  0  0  0  0  0  0
   -0.8088    6.0872    3.0974 H   0  0  0  0  0  0  0  0  0  0  0  0
   -0.6872    4.2952    3.3682 H   0  0  0  0  0  0  0  0  0  0  0  0
   -2.0284    4.9696   -0.0863 H   0  0  0  0  0  0  0  0  0  0  0  0
   -2.4635    4.2126    1.5135 H   0  0  0  0  0  0  0  0  0  0  0  0
   -0.2945    3.7024   -2.3225 C   0  0  0  0  0  0  0  0  0  0  0  0
   -0.5470    3.1358   -1.0157 N   0  0  0  0  0  4  0  0  0  0  0  0
   -1.4954    2.4015   -0.4486 C   0  0  0  0  0  0  0  0  0  0  0  0
   -2.6863    1.8495   -1.0335 N   0  0  0  0  0  0  0  0  0  0  0  0
   -3.5656    1.0309   -0.2194 C   0  0  0  0  0  0  0  0  0  0  0  0
   -3.0279    2.0250   -2.4308 C   0  0  0  0  0  0  0  0  0  0  0  0
   -1.0890    2.2162    0.8513 O   0  0  0  0  0  0  0  0  0  0  0  0
    0.6387    3.2701   -2.7339 H   0  0  0  0  0  0  0  0  0  0  0  0
   -1.0962    3.5273   -3.0488 H   0  0  0  0  0  0  0  0  0  0  0  0
   -0.1687    4.7994   -2.2205 H   0  0  0  0  0  0  0  0  0  0  0  0
   -4.5839    1.4733   -0.2072 H   0  0  0  0  0  0  0  0  0  0  0  0
   -3.2088    0.9483    0.8280 H   0  0  0  0  0  0  0  0  0  0  0  0
   -3.6194    0.0063   -0.6466 H   0  0  0  0  0  0  0  0  0  0  0  0
   -3.2023    3.0987   -2.6475 H   0  0  0  0  0  0  0  0  0  0  0  0
   -2.2225    1.6049   -3.0706 H   0  0  0  0  0  0  0  0  0  0  0  0
   -3.9635    1.4828   -2.6885 H   0  0  0  0  0  0  0  0  0  0  0  0
    5.0146    4.5323    1.8259 C   0  0  0  0  0  0  0  0  0  0  0  0
    3.8098    3.9676    2.3831 N   0  0  0  0  0  0  0  0  0  0  0  0
    2.6804    3.8227    1.7707 C   0  0  0  0  0  0  0  0  0  0  0  0
    2.3098    4.1661    0.4111 N   0  0  0  0  0  4  0  0  0  0  0  0
    2.1469    5.6015    0.1744 C   0  0  0  0  0  0  0  0  0  0  0  0
    3.1510    3.6542   -0.6696 C   0  0  0  0  0  0  0  0  0  0  0  0
    1.6028    3.1667    2.2914 O   0  0  0  0  0  0  0  0  0  0  0  0
    5.7947    4.5520    2.6138 H   0  0  0  0  0  0  0  0  0  0  0  0
    4.8462    5.5679    1.4744 H   0  0  0  0  0  0  0  0  0  0  0  0
    5.3995    3.8854    1.0117 H   0  0  0  0  0  0  0  0  0  0  0  0
    3.1260    6.1228    0.1293 H   0  0  0  0  0  0  0  0  0  0  0  0
    1.5881    6.1002    0.9847 H   0  0  0  0  0  0  0  0  0  0  0  0
    1.6102    5.7821   -0.7815 H   0  0  0  0  0  0  0  0  0  0  0  0
    4.1140    4.1994   -0.7408 H   0  0  0  0  0  0  0  0  0  0  0  0
    3.3970    2.5866   -0.5284 H   0  0  0  0  0  0  0  0  0  0  0  0
    2.6377    3.7706   -1.6461 H   0  0  0  0  0  0  0  0  0  0  0  0
  1  5  1  0  0  0  0
  1  2  1  0  0  0  0
  1 26  1  0  0  0  0
  1 21  1  0  0  0  0
  1 42  1  0  0  0  0
  1 39  1  0  0  0  0
  2  3  1  0  0  0  0
  2  4  1  0  0  0  0
  3 18  1  0  0  0  0
  3 10  1  0  0  0  0
  3 19  1  0  0  0  0
  4 15  1  0  0  0  0
  4 16  1  0  0  0  0
  4 17  1  0  0  0  0
  5  7  1  0  0  0  0
  5  6  1  0  0  0  0
  6 13  1  0  0  0  0
  6 14  1  0  0  0  0
  6 11  1  0  0  0  0
  7  8  1  0  0  0  0
  7  9  1  0  0  0  0
  7 12  1  0  0  0  0
 20 21  1  0  0  0  0
 20 27  1  0  0  0  0
 20 28  1  0  0  0  0
 20 29  1  0  0  0  0
 21 22  2  0  0  0  0
 22 23  1  0  0  0  0
 22 26  1  0  0  0  0
 23 24  1  0  0  0  0
 23 25  1  0  0  0  0
 24 30  1  0  0  0  0
 24 31  1  0  0  0  0
 24 32  1  0  0  0  0
 25 33  1  0  0  0  0
 25 34  1  0  0  0  0
 25 35  1  0  0  0  0
 36 37  1  0  0  0  0
 36 43  1  0  0  0  0
 36 44  1  0  0  0  0
 36 45  1  0  0  0  0
 37 38  2  0  0  0  0
 38 39  1  0  0  0  0
 38 42  1  0  0  0  0
 39 40  1  0  0  0  0
 39 41  1  0  0  0  0
 40 46  1  0  0  0  0
 40 47  1  0  0  0  0
 40 48  1  0  0  0  0
 41 49  1  0  0  0  0
 41 50  1  0  0  0  0
 41 51  1  0  0  0  0
M  END
$$$$
