
 OpenBabel11102520183D

 51 52  0  0  0  0  0  0  0  0999 V2000
    0.3778    2.9512    0.9208 Ti  0  0  0  0  0  0  0  0  0  0  0  0
   -0.5621    4.8145    1.3448 N   0  0  0  0  0  0  0  0  0  0  0  0
   -1.9974    4.8119    1.6763 C   0  0  0  0  0  0  0  0  0  0  0  0
    0.1689    5.9397    1.9422 C   0  0  0  0  0  0  0  0  0  0  0  0
    1.3020    1.1542    0.3489 N   0  0  0  0  0  0  0  0  0  0  0  0
    0.4475   -0.0339    0.4520 C   0  0  0  0  0  0  0  0  0  0  0  0
    1.9236    1.2334   -0.9720 C   0  0  0  0  0  0  0  0  0  0  0  0
    2.5894    0.3593   -1.1319 H   0  0  0  0  0  0  0  0  0  0  0  0
    1.1539    1.2395   -1.7716 H   0  0  0  0  0  0  0  0  0  0  0  0
   -2.3890    5.8470    1.7811 H   0  0  0  0  0  0  0  0  0  0  0  0
   -0.3440   -0.0307   -0.3261 H   0  0  0  0  0  0  0  0  0  0  0  0
    2.5383    2.1533   -1.0382 H   0  0  0  0  0  0  0  0  0  0  0  0
   -0.0324   -0.0680    1.4494 H   0  0  0  0  0  0  0  0  0  0  0  0
    1.0606   -0.9529    0.3362 H   0  0  0  0  0  0  0  0  0  0  0  0
    1.2238    5.9526    1.6169 H   0  0  0  0  0  0  0  0  0  0  0  0
   -0.2788    6.8963    1.5975 H   0  0  0  0  0  0  0  0  0  0  0  0
    0.1011    5.9307    3.0462 H   0  0  0  0  0  0  0  0  0  0  0  0
   -2.5789    4.3447    0.8606 H   0  0  0  0  0  0  0  0  0  0  0  0
   -2.2041    4.2616    2.6130 H   0  0  0  0  0  0  0  0  0  0  0  0
   -0.0249    3.8386   -2.1034 C   0  0  0  0  0  0  0  0  0  0  0  0
   -0.4609    3.1456   -0.9089 N   0  0  0  0  0  4  0  0  0  0  0  0
   -1.5052    2.4201   -0.5399 C   0  0  0  0  0  0  0  0  0  0  0  0
   -2.6275    1.9796   -1.3162 N   0  0  0  0  0  0  0  0  0  0  0  0
   -2.7323    2.2179   -2.7435 C   0  0  0  0  0  0  0  0  0  0  0  0
   -3.6489    1.2013   -0.6394 C   0  0  0  0  0  0  0  0  0  0  0  0
   -1.3016    2.1281    0.7856 O   0  0  0  0  0  0  0  0  0  0  0  0
   -0.7224    3.7578   -2.9451 H   0  0  0  0  0  0  0  0  0  0  0  0
    0.0923    4.9158   -1.8634 H   0  0  0  0  0  0  0  0  0  0  0  0
    0.9588    3.4528   -2.4307 H   0  0  0  0  0  0  0  0  0  0  0  0
   -1.8462    1.7878   -3.2592 H   0  0  0  0  0  0  0  0  0  0  0  0
   -3.6288    1.7316   -3.1814 H   0  0  0  0  0  0  0  0  0  0  0  0
   -2.8282    3.3038   -2.9421 H   0  0  0  0  0  0  0  0  0  0  0  0
   -4.1120    1.8122    0.1637 H   0  0  0  0  0  0  0  0  0  0  0  0
   -3.1929    0.2926   -0.1916 H   0  0  0  0  0  0  0  0  0  0  0  0
   -4.4541    0.8745   -1.3309 H   0  0  0  0  0  0  0  0  0  0  0  0
    4.6753    4.2557    2.1074 C   0  0  0  0  0  0  0  0  0  0  0  0
    3.5696    3.6473    2.8074 N   0  0  0  0  0  0  0  0  0  0  0  0
    2.4198    3.4927    2.2490 C   0  0  0  0  0  0  0  0  0  0  0  0
    1.2879    2.7833    2.7882 N   0  0  0  0  0  4  0  0  0  0  0  0
    1.6230    1.4336    3.2476 C   0  0  0  0  0  0  0  0  0  0  0  0
    0.6090    3.4511    3.9056 C   0  0  0  0  0  0  0  0  0  0  0  0
    2.0914    3.8202    0.9649 O   0  0  0  0  0  0  0  0  0  0  0  0
    4.9109    3.6690    1.1915 H   0  0  0  0  0  0  0  0  0  0  0  0
    5.5699    4.2550    2.7629 H   0  0  0  0  0  0  0  0  0  0  0  0
    4.4261    5.2999    1.8244 H   0  0  0  0  0  0  0  0  0  0  0  0
    2.2557    1.4737    4.1641 H   0  0  0  0  0  0  0  0  0  0  0  0
    0.6996    0.8579    3.4748 H   0  0  0  0  0  0  0  0  0  0  0  0
    2.2244    0.8755    2.5069 H   0  0  0  0  0  0  0  0  0  0  0  0
   -0.4077    3.7296    3.6213 H   0  0  0  0  0  0  0  0  0  0  0  0
    0.4847    2.8231    4.8189 H   0  0  0  0  0  0  0  0  0  0  0  0
    1.1681    4.3517    4.2423 H   0  0  0  0  0  0  0  0  0  0  0  0
  1  5  1  0  0  0  0
  1  2  1  0  0  0  0
  1 26  1  0  0  0  0
  1 21  1  0  0  0  0
  1 42  1  0  0  0  0
  1 39  1  0  0  0  0
  2  3  1  0  0  0  0
  2  4  1  0  0  0  0
  3 18  1  0  0  0  0
  3 10  1  0  0  0  0
  3 19  1  0  0  0  0
  4 15  1  0  0  0  0
  4 16  1  0  0  0  0
  4 17  1  0  0  0  0
  5  7  1  0  0  0  0
  5  6  1  0  0  0  0
  6 13  1  0  0  0  0
  6 14  1  0  0  0  0
  6 11  1  0  0  0  0
  7  8  1  0  0  0  0
  7  9  1  0  0  0  0
  7 12  1  0  0  0  0
 20 21  1  0  0  0  0
 20 27  1  0  0  0  0
 20 28  1  0  0  0  0
 20 29  1  0  0  0  0
 21 22  2  0  0  0  0
 22 23  1  0  0  0  0
 22 26  1  0  0  0  0
 23 24  1  0  0  0  0
 23 25  1  0  0  0  0
 24 30  1  0  0  0  0
 24 31  1  0  0  0  0
 24 32  1  0  0  0  0
 25 33  1  0  0  0  0
 25 34  1  0  0  0  0
 25 35  1  0  0  0  0
 36 37  1  0  0  0  0
 36 43  1  0  0  0  0
 36 44  1  0  0  0  0
 36 45  1  0  0  0  0
 37 38  2  0  0  0  0
 38 39  1  0  0  0  0
 38 42  1  0  0  0  0
 39 40  1  0  0  0  0
 39 41  1  0  0  0  0
 40 46  1  0  0  0  0
 40 47  1  0  0  0  0
 40 48  1  0  0  0  0
 41 49  1  0  0  0  0
 41 50  1  0  0  0  0
 41 51  1  0  0  0  0
M  END
$$$$
