XYZ file generated by Avogadro.
 OpenBabel11102520193D

 51 52  0  0  0  0  0  0  0  0999 V2000
   -1.0330    2.5211    0.9000 Ti  0  0  0  0  0  0  0  0  0  0  0  0
   -0.6167    4.5177    1.3589 N   0  0  0  0  0  0  0  0  0  0  0  0
   -1.2215    5.5592    0.5292 C   0  0  0  0  0  0  0  0  0  0  0  0
    0.7862    4.7709    1.6804 C   0  0  0  0  0  0  0  0  0  0  0  0
   -0.5959    2.7406   -1.1369 N   0  0  0  0  0  0  0  0  0  0  0  0
    0.7141    3.2775   -1.5066 C   0  0  0  0  0  0  0  0  0  0  0  0
   -1.6926    3.2607   -1.9533 C   0  0  0  0  0  0  0  0  0  0  0  0
   -2.6357    2.7511   -1.6720 H   0  0  0  0  0  0  0  0  0  0  0  0
   -1.8175    4.3502   -1.8233 H   0  0  0  0  0  0  0  0  0  0  0  0
   -0.6726    5.6988   -0.4183 H   0  0  0  0  0  0  0  0  0  0  0  0
    0.9271    3.0454   -2.5717 H   0  0  0  0  0  0  0  0  0  0  0  0
   -1.4988    3.0512   -3.0269 H   0  0  0  0  0  0  0  0  0  0  0  0
    0.7584    4.3727   -1.3803 H   0  0  0  0  0  0  0  0  0  0  0  0
    1.5050    2.7983   -0.8976 H   0  0  0  0  0  0  0  0  0  0  0  0
    1.1213    4.0411    2.4448 H   0  0  0  0  0  0  0  0  0  0  0  0
    1.4265    4.6719    0.7845 H   0  0  0  0  0  0  0  0  0  0  0  0
    0.9069    5.7898    2.1067 H   0  0  0  0  0  0  0  0  0  0  0  0
   -2.2816    5.3107    0.3250 H   0  0  0  0  0  0  0  0  0  0  0  0
   -1.2050    6.5263    1.0750 H   0  0  0  0  0  0  0  0  0  0  0  0
   -1.2835    2.1592    4.0842 C   0  0  0  0  0  0  0  0  0  0  0  0
   -1.8175    2.3999    2.7610 N   0  0  0  0  0  4  0  0  0  0  0  0
   -3.0137    2.7218    2.2983 C   0  0  0  0  0  0  0  0  0  0  0  0
   -4.2237    2.9127    3.0280 N   0  0  0  0  0  0  0  0  0  0  0  0
   -4.4192    4.2563    3.5336 C   0  0  0  0  0  0  0  0  0  0  0  0
   -4.6854    1.8329    3.8803 C   0  0  0  0  0  0  0  0  0  0  0  0
   -2.8626    2.9070    0.9506 O   0  0  0  0  0  0  0  0  0  0  0  0
   -2.0529    2.2668    4.8652 H   0  0  0  0  0  0  0  0  0  0  0  0
   -0.4970    2.9133    4.2899 H   0  0  0  0  0  0  0  0  0  0  0  0
   -0.8200    1.1563    4.1499 H   0  0  0  0  0  0  0  0  0  0  0  0
   -4.2246    5.0039    2.7341 H   0  0  0  0  0  0  0  0  0  0  0  0
   -5.4645    4.3920    3.8837 H   0  0  0  0  0  0  0  0  0  0  0  0
   -3.7252    4.4463    4.3816 H   0  0  0  0  0  0  0  0  0  0  0  0
   -5.7550    1.9910    4.1364 H   0  0  0  0  0  0  0  0  0  0  0  0
   -4.6125    0.8640    3.3413 H   0  0  0  0  0  0  0  0  0  0  0  0
   -4.1203    1.7785    4.8273 H   0  0  0  0  0  0  0  0  0  0  0  0
    0.8994   -1.9621    0.8981 C   0  0  0  0  0  0  0  0  0  0  0  0
    1.1554   -0.5563    1.1181 N   0  0  0  0  0  0  0  0  0  0  0  0
    0.3288    0.4360    1.0305 C   0  0  0  0  0  0  0  0  0  0  0  0
   -1.0818    0.4613    0.6725 N   0  0  0  0  0  4  0  0  0  0  0  0
   -1.9990   -0.2560    1.5607 C   0  0  0  0  0  0  0  0  0  0  0  0
   -1.3779    0.0109   -0.6897 C   0  0  0  0  0  0  0  0  0  0  0  0
    0.6875    1.7432    1.2229 O   0  0  0  0  0  0  0  0  0  0  0  0
   -0.1387   -2.1906    0.6299 H   0  0  0  0  0  0  0  0  0  0  0  0
    1.5533   -2.3209    0.0766 H   0  0  0  0  0  0  0  0  0  0  0  0
    1.1523   -2.5238    1.8203 H   0  0  0  0  0  0  0  0  0  0  0  0
   -1.9161   -1.3554    1.4637 H   0  0  0  0  0  0  0  0  0  0  0  0
   -3.0520    0.0214    1.3374 H   0  0  0  0  0  0  0  0  0  0  0  0
   -1.7988   -0.0428    2.6189 H   0  0  0  0  0  0  0  0  0  0  0  0
   -0.6556    0.4114   -1.4250 H   0  0  0  0  0  0  0  0  0  0  0  0
   -2.4043    0.3209   -0.9837 H   0  0  0  0  0  0  0  0  0  0  0  0
   -1.3149   -1.0899   -0.7966 H   0  0  0  0  0  0  0  0  0  0  0  0
  1  5  1  0  0  0  0
  1  2  1  0  0  0  0
  1 26  1  0  0  0  0
  1 21  1  0  0  0  0
  1 42  1  0  0  0  0
  1 39  1  0  0  0  0
  2  3  1  0  0  0  0
  2  4  1  0  0  0  0
  3 18  1  0  0  0  0
  3 10  1  0  0  0  0
  3 19  1  0  0  0  0
  4 15  1  0  0  0  0
  4 16  1  0  0  0  0
  4 17  1  0  0  0  0
  5  7  1  0  0  0  0
  5  6  1  0  0  0  0
  6 13  1  0  0  0  0
  6 14  1  0  0  0  0
  6 11  1  0  0  0  0
  7  8  1  0  0  0  0
  7  9  1  0  0  0  0
  7 12  1  0  0  0  0
 20 21  1  0  0  0  0
 20 27  1  0  0  0  0
 20 28  1  0  0  0  0
 20 29  1  0  0  0  0
 21 22  2  0  0  0  0
 22 23  1  0  0  0  0
 22 26  1  0  0  0  0
 23 24  1  0  0  0  0
 23 25  1  0  0  0  0
 24 30  1  0  0  0  0
 24 31  1  0  0  0  0
 24 32  1  0  0  0  0
 25 33  1  0  0  0  0
 25 34  1  0  0  0  0
 25 35  1  0  0  0  0
 36 37  1  0  0  0  0
 36 43  1  0  0  0  0
 36 44  1  0  0  0  0
 36 45  1  0  0  0  0
 37 38  2  0  0  0  0
 38 39  1  0  0  0  0
 38 42  1  0  0  0  0
 39 40  1  0  0  0  0
 39 41  1  0  0  0  0
 40 46  1  0  0  0  0
 40 47  1  0  0  0  0
 40 48  1  0  0  0  0
 41 49  1  0  0  0  0
 41 50  1  0  0  0  0
 41 51  1  0  0  0  0
M  END
>  <fileName>
/Users/dawn_mao/Desktop/PhD_research/chpt4_Ti_ureate/TM_catalyst_framework/src/TM_catalyst_framework/template/u2_d2d2_iso5.sdf

>  <name>
XYZ file generated by Avogadro.

$$$$
