
 OpenBabel11242510303D

 51 52  0  0  0  0  0  0  0  0999 V2000
   -0.6491    2.9394    1.0210 Ti  0  0  0  0  0  0  0  0  0  0  0  0
   -0.7613    5.0480    1.2936 N   0  0  0  0  0  0  0  0  0  0  0  0
   -0.9436    5.9300    0.1150 C   0  0  0  0  0  0  0  0  0  0  0  0
   -1.1282    5.6656    2.5698 C   0  0  0  0  0  0  0  0  0  0  0  0
   -0.2344    5.6709   -0.6934 H   0  0  0  0  0  0  0  0  0  0  0  0
   -0.7376    6.9894    0.3764 H   0  0  0  0  0  0  0  0  0  0  0  0
   -1.9546    5.8681   -0.3255 H   0  0  0  0  0  0  0  0  0  0  0  0
   -2.1890    5.9843    2.5733 H   0  0  0  0  0  0  0  0  0  0  0  0
   -0.9294    4.9798    3.4111 H   0  0  0  0  0  0  0  0  0  0  0  0
   -0.5137    6.5765    2.7244 H   0  0  0  0  0  0  0  0  0  0  0  0
   -2.3309    1.6541    5.1233 C   0  0  0  0  0  0  0  0  0  0  0  0
   -2.9488    2.0143    3.8623 N   0  0  0  0  0  0  0  0  0  0  0  0
   -2.2387    2.4514    2.8787 C   0  0  0  0  0  0  0  0  0  0  0  0
   -2.6746    2.7368    1.5211 N   0  0  0  0  0  4  0  0  0  0  0  0
   -3.5561    3.9264    1.5263 C   0  0  0  0  0  0  0  0  0  0  0  0
   -3.3644    1.6117    0.8699 C   0  0  0  0  0  0  0  0  0  0  0  0
   -0.8811    2.6190    2.8943 O   0  0  0  0  0  0  0  0  0  0  0  0
   -1.5904    0.8380    4.9626 H   0  0  0  0  0  0  0  0  0  0  0  0
   -1.8089    2.5259    5.5744 H   0  0  0  0  0  0  0  0  0  0  0  0
   -3.1006    1.2848    5.8307 H   0  0  0  0  0  0  0  0  0  0  0  0
   -4.5668    3.7817    1.0919 H   0  0  0  0  0  0  0  0  0  0  0  0
   -3.1473    4.7259    0.9209 H   0  0  0  0  0  0  0  0  0  0  0  0
   -3.7597    4.3157    2.5517 H   0  0  0  0  0  0  0  0  0  0  0  0
   -2.8299    1.3268   -0.0516 H   0  0  0  0  0  0  0  0  0  0  0  0
   -3.4582    0.7323    1.5421 H   0  0  0  0  0  0  0  0  0  0  0  0
   -4.3987    1.8270    0.5222 H   0  0  0  0  0  0  0  0  0  0  0  0
    3.0736    2.7280   -2.0421 C   0  0  0  0  0  0  0  0  0  0  0  0
    1.6572    2.9853   -1.9309 N   0  0  0  0  0  0  0  0  0  0  0  0
    0.9667    3.2224   -0.8616 C   0  0  0  0  0  0  0  0  0  0  0  0
    1.3591    3.1758    0.5385 N   0  0  0  0  0  4  0  0  0  0  0  0
    2.2199    2.0917    1.0243 C   0  0  0  0  0  0  0  0  0  0  0  0
    1.9602    4.4270    1.0227 C   0  0  0  0  0  0  0  0  0  0  0  0
   -0.4022    3.2609   -0.8546 O   0  0  0  0  0  0  0  0  0  0  0  0
    3.2127    1.6532   -2.2979 H   0  0  0  0  0  0  0  0  0  0  0  0
    3.4835    3.3216   -2.8836 H   0  0  0  0  0  0  0  0  0  0  0  0
    3.6329    2.9688   -1.1194 H   0  0  0  0  0  0  0  0  0  0  0  0
    2.6260    1.4493    0.2282 H   0  0  0  0  0  0  0  0  0  0  0  0
    1.6588    1.5117    1.7599 H   0  0  0  0  0  0  0  0  0  0  0  0
    3.1087    2.4329    1.6087 H   0  0  0  0  0  0  0  0  0  0  0  0
    1.9107    4.4545    2.1382 H   0  0  0  0  0  0  0  0  0  0  0  0
    3.0216    4.5210    0.7100 H   0  0  0  0  0  0  0  0  0  0  0  0
    1.4846    5.3390    0.6443 H   0  0  0  0  0  0  0  0  0  0  0  0
   -0.5887    0.8204    0.6077 N   0  0  0  0  0  0  0  0  0  0  0  0
   -0.0762    0.3741   -0.7027 C   0  0  0  0  0  0  0  0  0  0  0  0
   -0.2958   -0.1653    1.6567 C   0  0  0  0  0  0  0  0  0  0  0  0
   -0.6195    0.8733   -1.5288 H   0  0  0  0  0  0  0  0  0  0  0  0
   -0.1977   -0.7215   -0.8431 H   0  0  0  0  0  0  0  0  0  0  0  0
    1.0002    0.5709   -0.8058 H   0  0  0  0  0  0  0  0  0  0  0  0
   -0.7767   -1.1336    1.3960 H   0  0  0  0  0  0  0  0  0  0  0  0
   -0.7046    0.1539    2.6293 H   0  0  0  0  0  0  0  0  0  0  0  0
    0.7881   -0.3816    1.7321 H   0  0  0  0  0  0  0  0  0  0  0  0
  1  2  1  0  0  0  0
  1 17  1  0  0  0  0
  1 14  1  0  0  0  0
  1 33  1  0  0  0  0
  1 30  1  0  0  0  0
  1 43  1  0  0  0  0
  2  3  1  0  0  0  0
  2  4  1  0  0  0  0
  3  5  1  0  0  0  0
  3  6  1  0  0  0  0
  3  7  1  0  0  0  0
  4  8  1  0  0  0  0
  4  9  1  0  0  0  0
  4 10  1  0  0  0  0
 11 12  1  0  0  0  0
 11 18  1  0  0  0  0
 11 19  1  0  0  0  0
 11 20  1  0  0  0  0
 12 13  2  0  0  0  0
 13 14  1  0  0  0  0
 13 17  1  0  0  0  0
 14 15  1  0  0  0  0
 14 16  1  0  0  0  0
 15 21  1  0  0  0  0
 15 22  1  0  0  0  0
 15 23  1  0  0  0  0
 16 24  1  0  0  0  0
 16 25  1  0  0  0  0
 16 26  1  0  0  0  0
 27 28  1  0  0  0  0
 27 34  1  0  0  0  0
 27 35  1  0  0  0  0
 27 36  1  0  0  0  0
 28 29  2  0  0  0  0
 29 30  1  0  0  0  0
 29 33  1  0  0  0  0
 30 31  1  0  0  0  0
 30 32  1  0  0  0  0
 31 37  1  0  0  0  0
 31 38  1  0  0  0  0
 31 39  1  0  0  0  0
 32 40  1  0  0  0  0
 32 41  1  0  0  0  0
 32 42  1  0  0  0  0
 43 44  1  0  0  0  0
 43 45  1  0  0  0  0
 44 46  1  0  0  0  0
 44 47  1  0  0  0  0
 44 48  1  0  0  0  0
 45 49  1  0  0  0  0
 45 50  1  0  0  0  0
 45 51  1  0  0  0  0
M  END
>  <fileName>
/Users/dawn_mao/Desktop/PhD_research/chpt4_Ti_ureate/TM_catalyst_framework/src/TM_catalyst_framework/template/octahedral.sdf

$$$$
