
 OpenBabel11232523063D

 51 52  0  0  0  0  0  0  0  0999 V2000
   -0.8438    2.9264    0.8740 Ti  0  0  0  0  0  0  0  0  0  0  0  0
   -0.7165    5.0603    1.2808 N   0  0  0  0  0  0  0  0  0  0  0  0
   -0.6224    5.4224    2.7032 C   0  0  0  0  0  0  0  0  0  0  0  0
    0.2665    5.9014    0.5503 C   0  0  0  0  0  0  0  0  0  0  0  0
   -1.4676    5.0145    3.2811 H   0  0  0  0  0  0  0  0  0  0  0  0
   -0.6998    6.5277    2.8273 H   0  0  0  0  0  0  0  0  0  0  0  0
    0.3412    5.0753    3.1290 H   0  0  0  0  0  0  0  0  0  0  0  0
    0.0550    6.9796    0.7387 H   0  0  0  0  0  0  0  0  0  0  0  0
    0.2038    5.8272   -0.5470 H   0  0  0  0  0  0  0  0  0  0  0  0
    1.3063    5.6695    0.8475 H   0  0  0  0  0  0  0  0  0  0  0  0
   -2.4859    2.2359    5.2955 C   0  0  0  0  0  0  0  0  0  0  0  0
   -3.0213    2.4683    3.9623 N   0  0  0  0  0  0  0  0  0  0  0  0
   -2.3109    2.6300    2.8879 C   0  0  0  0  0  0  0  0  0  0  0  0
   -2.8185    2.8656    1.5466 N   0  0  0  0  0  4  0  0  0  0  0  0
   -3.7003    1.8116    1.0756 C   0  0  0  0  0  0  0  0  0  0  0  0
   -3.5708    4.1121    1.3350 C   0  0  0  0  0  0  0  0  0  0  0  0
   -0.9453    2.5860    2.7779 O   0  0  0  0  0  0  0  0  0  0  0  0
   -3.3261    2.0613    6.0064 H   0  0  0  0  0  0  0  0  0  0  0  0
   -1.8385    1.3344    5.3208 H   0  0  0  0  0  0  0  0  0  0  0  0
   -1.9184    3.1168    5.6670 H   0  0  0  0  0  0  0  0  0  0  0  0
   -3.6959    1.8102   -0.0357 H   0  0  0  0  0  0  0  0  0  0  0  0
   -3.4494    0.8394    1.5455 H   0  0  0  0  0  0  0  0  0  0  0  0
   -4.7602    1.9801    1.3740 H   0  0  0  0  0  0  0  0  0  0  0  0
   -4.4905    4.1374    1.9582 H   0  0  0  0  0  0  0  0  0  0  0  0
   -3.0206    5.0217    1.6040 H   0  0  0  0  0  0  0  0  0  0  0  0
   -3.8814    4.2247    0.2765 H   0  0  0  0  0  0  0  0  0  0  0  0
    1.4963    3.8010   -3.3171 C   0  0  0  0  0  0  0  0  0  0  0  0
    1.6389    3.5761   -1.9020 N   0  0  0  0  0  0  0  0  0  0  0  0
    0.7062    3.3689   -1.0264 C   0  0  0  0  0  0  0  0  0  0  0  0
   -0.7491    3.2928   -1.1607 N   0  0  0  0  0  4  0  0  0  0  0  0
   -1.0612    2.2322   -2.1064 C   0  0  0  0  0  0  0  0  0  0  0  0
   -1.6555    4.3885   -1.5401 C   0  0  0  0  0  0  0  0  0  0  0  0
    0.9688    2.9833    0.2535 O   0  0  0  0  0  0  0  0  0  0  0  0
    2.5066    3.9791   -3.7495 H   0  0  0  0  0  0  0  0  0  0  0  0
    1.1164    2.8786   -3.7961 H   0  0  0  0  0  0  0  0  0  0  0  0
    0.8555    4.6779   -3.5304 H   0  0  0  0  0  0  0  0  0  0  0  0
   -0.9931    2.5941   -3.1539 H   0  0  0  0  0  0  0  0  0  0  0  0
   -2.0980    1.8702   -1.9486 H   0  0  0  0  0  0  0  0  0  0  0  0
   -0.3340    1.4057   -2.0390 H   0  0  0  0  0  0  0  0  0  0  0  0
   -1.7517    5.2001   -0.8132 H   0  0  0  0  0  0  0  0  0  0  0  0
   -1.4254    4.8065   -2.5385 H   0  0  0  0  0  0  0  0  0  0  0  0
   -2.7023    4.0125   -1.5584 H   0  0  0  0  0  0  0  0  0  0  0  0
   -0.7706    0.7134    0.5727 N   0  0  0  0  0  0  0  0  0  0  0  0
   -1.6412   -0.1873   -0.2559 C   0  0  0  0  0  0  0  0  0  0  0  0
    0.6026    0.1739    0.4428 C   0  0  0  0  0  0  0  0  0  0  0  0
   -2.7143   -0.0619   -0.1609 H   0  0  0  0  0  0  0  0  0  0  0  0
   -1.4993   -1.2496    0.0464 H   0  0  0  0  0  0  0  0  0  0  0  0
   -1.4022   -0.2078   -1.3324 H   0  0  0  0  0  0  0  0  0  0  0  0
    1.2694    0.5833    1.2204 H   0  0  0  0  0  0  0  0  0  0  0  0
    1.0235    0.3704   -0.5678 H   0  0  0  0  0  0  0  0  0  0  0  0
    0.6225   -0.9375    0.5698 H   0  0  0  0  0  0  0  0  0  0  0  0
  1  2  1  0  0  0  0
  1 17  1  0  0  0  0
  1 14  1  0  0  0  0
  1 33  1  0  0  0  0
  1 30  1  0  0  0  0
  1 43  1  0  0  0  0
  2  3  1  0  0  0  0
  2  4  1  0  0  0  0
  3  5  1  0  0  0  0
  3  6  1  0  0  0  0
  3  7  1  0  0  0  0
  4  8  1  0  0  0  0
  4  9  1  0  0  0  0
  4 10  1  0  0  0  0
 11 12  1  0  0  0  0
 11 18  1  0  0  0  0
 11 19  1  0  0  0  0
 11 20  1  0  0  0  0
 12 13  2  0  0  0  0
 13 14  1  0  0  0  0
 13 17  1  0  0  0  0
 14 15  1  0  0  0  0
 14 16  1  0  0  0  0
 15 21  1  0  0  0  0
 15 22  1  0  0  0  0
 15 23  1  0  0  0  0
 16 24  1  0  0  0  0
 16 25  1  0  0  0  0
 16 26  1  0  0  0  0
 27 28  1  0  0  0  0
 27 34  1  0  0  0  0
 27 35  1  0  0  0  0
 27 36  1  0  0  0  0
 28 29  2  0  0  0  0
 29 30  1  0  0  0  0
 29 33  1  0  0  0  0
 30 31  1  0  0  0  0
 30 32  1  0  0  0  0
 31 37  1  0  0  0  0
 31 38  1  0  0  0  0
 31 39  1  0  0  0  0
 32 40  1  0  0  0  0
 32 41  1  0  0  0  0
 32 42  1  0  0  0  0
 43 44  1  0  0  0  0
 43 45  1  0  0  0  0
 44 46  1  0  0  0  0
 44 47  1  0  0  0  0
 44 48  1  0  0  0  0
 45 49  1  0  0  0  0
 45 50  1  0  0  0  0
 45 51  1  0  0  0  0
M  END
>  <fileName>
/Users/dawn_mao/Desktop/PhD_research/chpt4_Ti_ureate/TM_catalyst_framework/src/TM_catalyst_framework/template/octahedral.sdf

$$$$
