XYZ file generated by Avogadro.
  Avogadro11132516123D

  6  5  0  0  0  0  0  0  0  0999 V2000
   -0.6554    2.7972    0.7841 Ti  0  0  0  0  0  0  0  0  0  0  0  0
   -0.3011    4.7357    1.4605 He  0  0  0  0  0  0  0  0  0  0  0  0
   -0.5189    2.4769    2.7840 Ne  0  0  0  0  0  0  0  0  0  0  0  0
   -2.6102    2.8061    0.3612 F   0  0  0  0  0  0  0  0  0  0  0  0
    0.3973    3.1327   -0.9783 He  0  0  0  0  0  0  0  0  0  0  0  0
   -0.2845    0.7374    0.7250 He  0  0  0  0  0  0  0  0  0  0  0  0
  1  3  1  0  0  0  0
  1  6  1  0  0  0  0
  1  5  1  0  0  0  0
  1  2  1  0  0  0  0
  1  4  1  0  0  0  0
M  END
> <fileName>
/Users/dawn_mao/Desktop/PhD_research/chpt4_Ti_ureate/TM_catalyst_framework/src/TM_catalyst_framework/template/u1_d2_ON2.sdf

> <name>
XYZ file generated by Avogadro.

> <totalCharge>
0

> <totalSpinMultiplicity>
1

$$$$
