
 OpenBabel11132516133D

  5  4  0  0  0  0  0  0  0  0999 V2000
   -0.8142    3.0653    0.4192 Ti  0  0  0  0  0  0  0  0  0  0  0  0
   -0.4279    4.8467    1.3799 He  0  0  0  0  0  0  0  0  0  0  0  0
    0.2269    1.6150    1.4493 He  0  0  0  0  0  0  0  0  0  0  0  0
   -2.7471    2.6749    0.7529 F   0  0  0  0  0  0  0  0  0  0  0  0
   -0.2727    3.3818   -1.5447 He  0  0  0  0  0  0  0  0  0  0  0  0
  1  4  1  0  0  0  0
  1  3  1  0  0  0  0
  1  5  1  0  0  0  0
  1  2  1  0  0  0  0
M  END
$$$$
