XYZ file generated by Avogadro.
  Avogadro11132516103D

  5  4  0  0  0  0  0  0  0  0999 V2000
   -0.6055    3.2099    0.7978 Ti  0  0  0  0  0  0  0  0  0  0  0  0
   -0.3052    5.1371    1.4506 He  0  0  0  0  0  0  0  0  0  0  0  0
   -2.8810    2.7035    0.5904 Cl  0  0  0  0  0  0  0  0  0  0  0  0
    0.1232    1.9694    2.0725 F   0  0  0  0  0  0  0  0  0  0  0  0
    0.3562    2.9237   -0.9922 He  0  0  0  0  0  0  0  0  0  0  0  0
  1  4  1  0  0  0  0
  1  3  1  0  0  0  0
  1  5  1  0  0  0  0
  1  2  1  0  0  0  0
M  END
> <fileName>
/Users/dawn_mao/Desktop/PhD_research/chpt4_Ti_ureate/TM_catalyst_framework/src/TM_catalyst_framework/template/u2_d1.sdf

> <name>
XYZ file generated by Avogadro.

> <totalCharge>
0

> <totalSpinMultiplicity>
1

$$$$
