
 OpenBabel11132516043D

  7  6  0  0  0  0  0  0  0  0999 V2000
   -0.7911    2.5676    0.6682 Ti  0  0  0  0  0  0  0  0  0  0  0  0
   -0.7881    4.5869    1.1709 He  0  0  0  0  0  0  0  0  0  0  0  0
    1.2428    1.6657    1.3258 Ar  0  0  0  0  0  0  0  0  0  0  0  0
   -2.7760    2.1519    0.5772 Ne  0  0  0  0  0  0  0  0  0  0  0  0
   -0.6034    3.0339   -1.3456 He  0  0  0  0  0  0  0  0  0  0  0  0
   -0.9796    1.9455    2.8843 Cl  0  0  0  0  0  0  0  0  0  0  0  0
   -1.0105    0.7696    0.1651 F   0  0  0  0  0  0  0  0  0  0  0  0
  1  7  1  0  0  0  0
  1  6  1  0  0  0  0
  1  5  1  0  0  0  0
  1  2  1  0  0  0  0
  1  3  1  0  0  0  0
  1  4  1  0  0  0  0
M  END
$$$$
