XYZ file generated by Avogadro.
  Avogadro11132516093D

  6  5  0  0  0  0  0  0  0  0999 V2000
   -0.7075    2.9179    1.0447 Ti  0  0  0  0  0  0  0  0  0  0  0  0
   -0.6481    4.9512    1.3624 He  0  0  0  0  0  0  0  0  0  0  0  0
   -0.5647    0.2740    0.3439 Cl  0  0  0  0  0  0  0  0  0  0  0  0
   -3.1692    2.6124    2.0801 F   0  0  0  0  0  0  0  0  0  0  0  0
   -0.5350    2.7636   -1.0084 He  0  0  0  0  0  0  0  0  0  0  0  0
    0.2034    2.4190    2.7889 Ne  0  0  0  0  0  0  0  0  0  0  0  0
  1  4  1  0  0  0  0
  1  3  1  0  0  0  0
  1  5  1  0  0  0  0
  1  2  1  0  0  0  0
  1  6  1  0  0  0  0
M  END
> <fileName>
/Users/dawn_mao/Desktop/PhD_research/chpt4_Ti_ureate/TM_catalyst_framework/src/TM_catalyst_framework/template/u2_d1d2_iso2.sdf

> <name>
XYZ file generated by Avogadro.

$$$$
