
 OpenBabel11132516093D

  6  5  0  0  0  0  0  0  0  0999 V2000
   -0.7075    2.9179    1.0447 Ti  0  0  0  0  0  0  0  0  0  0  0  0
   -0.6481    4.9512    1.3624 He  0  0  0  0  0  0  0  0  0  0  0  0
    0.1292    2.3649    3.1904 F   0  0  0  0  0  0  0  0  0  0  0  0
   -2.6973    2.7564    1.4128 Ne  0  0  0  0  0  0  0  0  0  0  0  0
   -0.5350    2.7636   -1.0084 He  0  0  0  0  0  0  0  0  0  0  0  0
   -0.5647    0.2740    0.3439 Cl  0  0  0  0  0  0  0  0  0  0  0  0
  1  3  1  0  0  0  0
  1  6  1  0  0  0  0
  1  5  1  0  0  0  0
  1  2  1  0  0  0  0
  1  4  1  0  0  0  0
M  END
$$$$
