
 OpenBabel11132516023D

  7  6  0  0  0  0  0  0  0  0999 V2000
   -1.0623    2.5312    0.9601 Ti  0  0  0  0  0  0  0  0  0  0  0  0
   -0.9113    4.5912    1.2854 He  0  0  0  0  0  0  0  0  0  0  0  0
   -1.4790    0.5878    0.5472 Ne  0  0  0  0  0  0  0  0  0  0  0  0
   -1.1875    1.8571    3.1765 Ar  0  0  0  0  0  0  0  0  0  0  0  0
   -0.5995    2.8056   -1.0554 He  0  0  0  0  0  0  0  0  0  0  0  0
   -3.0015    2.5236    0.6099 F   0  0  0  0  0  0  0  0  0  0  0  0
    0.7996    2.1572    1.5038 Cl  0  0  0  0  0  0  0  0  0  0  0  0
  1  6  1  0  0  0  0
  1  7  1  0  0  0  0
  1  5  1  0  0  0  0
  1  2  1  0  0  0  0
  1  4  1  0  0  0  0
  1  3  1  0  0  0  0
M  END
$$$$
