XYZ file generated by Avogadro.
  Avogadro11132516013D

  7  6  0  0  0  0  0  0  0  0999 V2000
   -1.2084    2.4239    0.9866 Ti  0  0  0  0  0  0  0  0  0  0  0  0
   -0.9391    4.4609    1.3309 He  0  0  0  0  0  0  0  0  0  0  0  0
   -1.0239    0.1341    0.6622 Ar  0  0  0  0  0  0  0  0  0  0  0  0
   -2.0818    2.0942    2.7892 Ne  0  0  0  0  0  0  0  0  0  0  0  0
   -0.6301    2.6673   -0.9958 He  0  0  0  0  0  0  0  0  0  0  0  0
   -3.1279    2.5374    0.6102 F   0  0  0  0  0  0  0  0  0  0  0  0
    0.9198    1.8283    1.7857 Cl  0  0  0  0  0  0  0  0  0  0  0  0
  1  6  1  0  0  0  0
  1  7  1  0  0  0  0
  1  5  1  0  0  0  0
  1  2  1  0  0  0  0
  1  3  1  0  0  0  0
  1  4  1  0  0  0  0
M  END
> <fileName>
/Users/dawn_mao/Desktop/PhD_research/chpt4_Ti_ureate/TM_catalyst_framework/src/TM_catalyst_framework/template/u2_d2d2_iso5.sdf

> <name>
XYZ file generated by Avogadro.

$$$$
