XYZ file generated by Avogadro.
  Avogadro11132516013D

  7  6  0  0  0  0  0  0  0  0999 V2000
   -0.8766    2.5836    0.8908 Ti  0  0  0  0  0  0  0  0  0  0  0  0
   -0.8634    4.6354    1.2271 He  0  0  0  0  0  0  0  0  0  0  0  0
    1.1002    1.6595    1.6787 Ar  0  0  0  0  0  0  0  0  0  0  0  0
   -1.1850    0.6221    0.4686 Ne  0  0  0  0  0  0  0  0  0  0  0  0
   -0.6010    2.8797   -1.1500 He  0  0  0  0  0  0  0  0  0  0  0  0
   -2.8241    2.4354    0.6676 F   0  0  0  0  0  0  0  0  0  0  0  0
   -1.1500    2.2520    2.8221 Cl  0  0  0  0  0  0  0  0  0  0  0  0
  1  6  1  0  0  0  0
  1  7  1  0  0  0  0
  1  5  1  0  0  0  0
  1  2  1  0  0  0  0
  1  3  1  0  0  0  0
  1  4  1  0  0  0  0
M  END
> <fileName>
/Users/dawn_mao/Desktop/PhD_research/chpt4_Ti_ureate/TM_catalyst_framework/src/TM_catalyst_framework/template/u2_d2d2_iso4.sdf

> <name>
XYZ file generated by Avogadro.

$$$$
